<?xml version="1.0" encoding="UTF-8"?>

<!-- generated on 2025-02-24 15:13:44 by Eclipse SUMO netedit Version 1.22.0
<neteditConfiguration xmlns:xsi="http://www.w3.org/2001/XMLSchema-instance" xsi:noNamespaceSchemaLocation="http://sumo.dlr.de/xsd/neteditConfiguration.xsd">

    <input>
        <sumocfg-file value="C:\Users\Ректор\Downloads\TrafficSimulation-main\TrafficSimulation-main\test_opt_our1\test.sumocfg"/>
        <additional-files value=""/>
        <route-files value="C:\Users\Ректор\Downloads\TrafficSimulation-main\TrafficSimulation-main\test_opt_our1\test.rou.xml"/>
        <sumo-net-file value="C:\Users\Ректор\Downloads\TrafficSimulation-main\TrafficSimulation-main\test_opt_our1\our_project.net.xml"/>
    </input>

    <output>
        <output-file value="C:\Users\Ректор\Downloads\TrafficSimulation-main\TrafficSimulation-main\test_opt_our1\our_project.net.xml"/>
    </output>

    <processing>
        <geometry.min-radius.fix.railways value="false"/>
        <geometry.max-grade.fix value="false"/>
        <offset.disable-normalization value="true"/>
        <lefthand value="0"/>
    </processing>

    <junctions>
        <no-internal-links value="false"/>
        <no-turnarounds value="true"/>
        <junctions.corner-detail value="5"/>
        <junctions.limit-turn-speed value="5.50"/>
        <rectangular-lane-cut value="0"/>
    </junctions>

    <pedestrian>
        <walkingareas value="1"/>
    </pedestrian>

    <netedit>
        <ignore.routeelements value="false"/>
    </netedit>

</neteditConfiguration>
-->

<net version="1.20" junctionCornerDetail="5" walkingareas="true" limitTurnSpeed="5.50" xmlns:xsi="http://www.w3.org/2001/XMLSchema-instance" xsi:noNamespaceSchemaLocation="http://sumo.dlr.de/xsd/net_file.xsd">

    <location netOffset="-286081.53,-5527030.91" convBoundary="261.36,135.83,473.75,408.46" origBoundary="24.023652,49.857550,24.029778,49.863403" projParameter="+proj=utm +zone=35 +ellps=WGS84 +datum=WGS84 +units=m +no_defs"/>

    <type id="highway.primary" priority="12" numLanes="3" speed="13.89" disallow="pedestrian tram rail_urban rail rail_electric rail_fast ship" oneway="0" sidewalkWidth="3.00"/>

    <edge id=":J0_w0" function="walkingarea">
        <lane id=":J0_w0_0" index="0" allow="pedestrian" speed="2.78" length="3.20" width="3.20" shape="261.36,216.01 261.08,212.82 261.66,219.20 261.36,216.01"/>
    </edge>
    <edge id=":J18_0" function="internal">
        <lane id=":J18_0_0" index="0" disallow="pedestrian tram rail_urban rail rail_electric rail_fast ship" speed="13.89" length="45.93" shape="392.61,195.89 395.40,206.19 399.83,219.63 404.28,232.08 407.17,239.42"/>
    </edge>
    <edge id=":J18_1" function="internal">
        <lane id=":J18_1_0" index="0" disallow="pedestrian tram rail_urban rail rail_electric rail_fast ship" speed="13.89" length="46.22" shape="392.61,195.89 403.46,240.73"/>
        <lane id=":J18_1_1" index="1" disallow="pedestrian tram rail_urban rail rail_electric rail_fast ship" speed="13.89" length="46.22" shape="389.47,196.51 400.36,241.52"/>
    </edge>
    <edge id=":J18_3" function="internal">
        <lane id=":J18_3_0" index="0" disallow="pedestrian" speed="6.11" length="9.06" shape="378.38,203.53 380.92,203.19 382.56,202.12 383.32,200.30 383.19,197.74"/>
    </edge>
    <edge id=":J18_4" function="internal">
        <lane id=":J18_4_0" index="0" disallow="pedestrian tram rail_urban rail rail_electric rail_fast ship" speed="13.89" length="12.72" shape="383.30,209.47 384.15,206.07 384.30,203.66 383.92,201.21 383.19,197.74"/>
        <lane id=":J18_4_1" index="1" disallow="pedestrian tram rail_urban rail rail_electric rail_fast ship" speed="13.89" length="12.72" shape="386.37,210.38 387.34,206.54 387.54,203.81 387.14,201.05 386.33,197.12"/>
    </edge>
    <edge id=":J19_0" function="internal">
        <lane id=":J19_0_0" index="0" disallow="pedestrian" speed="13.89" length="2.26" shape="380.36,183.32 380.21,182.55 380.14,182.02 380.13,181.48 380.15,180.70"/>
        <lane id=":J19_0_1" index="1" disallow="pedestrian" speed="13.89" length="2.26" shape="383.50,182.70 383.39,182.15 383.34,181.77 383.33,181.39 383.35,180.83"/>
    </edge>
    <edge id=":J19_2" function="internal">
        <lane id=":J19_2_0" index="0" disallow="pedestrian" speed="13.89" length="0.75" shape="389.75,181.09 389.74,181.20 389.74,181.28 389.75,181.35 389.78,181.46"/>
        <lane id=":J19_2_1" index="1" disallow="pedestrian" speed="13.89" length="0.75" shape="386.55,180.96 386.54,181.30 386.54,181.53 386.57,181.75 386.64,182.08"/>
    </edge>
    <edge id=":J20_0" function="internal">
        <lane id=":J20_0_0" index="0" disallow="pedestrian tram rail_urban rail rail_electric rail_fast ship" speed="8.15" length="14.39" shape="389.56,335.95 386.54,336.48 384.27,338.39 382.73,341.68 381.94,346.34"/>
    </edge>
    <edge id=":J20_1" function="internal">
        <lane id=":J20_1_0" index="0" disallow="pedestrian tram rail_urban rail rail_electric rail_fast ship" speed="13.89" length="18.22" shape="386.75,330.10 383.99,334.34 382.73,337.62 382.27,341.20 381.94,346.34"/>
        <lane id=":J20_1_1" index="1" disallow="pedestrian tram rail_urban rail rail_electric rail_fast ship" speed="13.89" length="18.22" shape="384.17,328.22 381.10,332.89 379.67,336.49 379.13,340.43 378.75,346.09"/>
    </edge>
    <edge id=":J20_3" function="internal">
        <lane id=":J20_3_0" index="0" disallow="pedestrian tram rail_urban rail rail_electric rail_fast ship" speed="6.78" length="8.81" shape="369.18,345.33 369.04,342.97 368.21,341.11 366.68,339.76 364.46,338.93"/>
        <lane id=":J20_3_1" index="1" disallow="pedestrian tram rail_urban rail rail_electric rail_fast ship" speed="8.24" length="13.45" shape="372.37,345.58 372.16,341.97 370.88,339.14 368.56,337.08 365.17,335.81"/>
        <lane id=":J20_3_2" index="2" disallow="pedestrian tram rail_urban rail rail_electric rail_fast ship" speed="9.48" length="18.08" shape="375.56,345.83 375.27,340.98 373.56,337.17 370.43,334.40 365.88,332.69"/>
    </edge>
    <edge id=":J21_0" function="internal">
        <lane id=":J21_0_0" index="0" disallow="pedestrian" speed="13.89" length="7.80" shape="381.25,355.13 380.77,362.86"/>
        <lane id=":J21_0_1" index="1" disallow="pedestrian" speed="13.89" length="7.80" shape="378.06,354.88 377.58,362.72"/>
    </edge>
    <edge id=":J21_2" function="internal">
        <lane id=":J21_2_0" index="0" disallow="pedestrian" speed="13.89" length="8.32" shape="371.18,362.44 370.79,359.91 369.78,358.28 368.79,356.65 368.49,354.12"/>
        <lane id=":J21_2_1" index="1" disallow="pedestrian" speed="13.89" length="8.32" shape="371.18,362.44 371.68,354.38"/>
        <lane id=":J21_2_2" index="2" disallow="pedestrian" speed="13.89" length="8.32" shape="374.38,362.58 374.87,354.63"/>
    </edge>
    <edge id=":J23_0" function="internal">
        <lane id=":J23_0_0" index="0" disallow="pedestrian tram rail_urban rail rail_electric rail_fast ship" speed="13.89" length="21.80" shape="453.10,349.78 449.06,345.34 445.28,343.03 440.82,341.35 434.73,338.80"/>
    </edge>
    <edge id=":J23_1" function="internal">
        <lane id=":J23_1_0" index="0" disallow="pedestrian tram rail_urban rail rail_electric rail_fast ship" speed="13.89" length="22.27" shape="453.10,349.78 448.81,344.82 444.36,341.22 439.75,338.96 434.98,338.06"/>
    </edge>
    <edge id=":J23_2" function="internal">
        <lane id=":J23_2_0" index="0" disallow="pedestrian tram rail_urban rail rail_electric rail_fast ship" speed="13.89" length="16.85" shape="457.37,350.15 453.11,345.31 448.71,342.07 443.23,339.26 435.77,335.74"/>
        <lane id=":J23_2_1" index="1" disallow="pedestrian tram rail_urban rail rail_electric rail_fast ship" speed="13.88" length="16.85" shape="457.37,350.15 457.59,342.77"/>
    </edge>
    <edge id=":J23_4" function="internal">
        <lane id=":J23_4_0" index="0" disallow="pedestrian tram rail_urban rail rail_electric rail_fast ship" speed="13.89" length="21.96" shape="446.03,318.77 464.85,344.12"/>
        <lane id=":J23_4_1" index="1" disallow="pedestrian tram rail_urban rail rail_electric rail_fast ship" speed="13.89" length="21.96" shape="443.47,320.69 462.36,346.13"/>
        <lane id=":J23_4_2" index="2" disallow="pedestrian tram rail_urban rail rail_electric rail_fast ship" speed="13.89" length="21.96" shape="458.25,346.10 459.87,348.14"/>
    </edge>
    <edge id=":J23_7" function="internal">
        <lane id=":J23_7_0" index="0" disallow="pedestrian tram rail_urban rail rail_electric rail_fast ship" speed="13.89" length="31.68" shape="444.37,320.01 447.11,324.04 451.96,329.29 458.13,335.93 464.85,344.12"/>
    </edge>
    <edge id=":J24_0" function="internal">
        <lane id=":J24_0_0" index="0" disallow="pedestrian" speed="13.89" length="22.00" shape="341.90,196.52 348.40,200.58 353.90,203.29 358.40,204.64 361.91,204.64"/>
    </edge>
    <edge id=":J24_1" function="internal">
        <lane id=":J24_1_0" index="0" disallow="pedestrian tram rail_urban rail rail_electric rail_fast ship" speed="13.89" length="14.26" shape="339.45,198.73 342.97,201.08 345.36,202.72 347.68,204.45 350.98,207.10"/>
        <lane id=":J24_1_1" index="1" disallow="pedestrian tram rail_urban rail rail_electric rail_fast ship" speed="13.89" length="14.94" shape="337.00,200.93 340.68,203.40 343.20,205.11 345.64,206.91 349.09,209.69"/>
        <lane id=":J24_1_2" index="2" disallow="pedestrian tram rail_urban rail rail_electric rail_fast ship" speed="13.89" length="15.63" shape="334.55,203.13 338.40,205.71 341.03,207.49 343.59,209.38 347.21,212.28"/>
    </edge>
    <edge id=":J24_4" function="internal">
        <lane id=":J24_4_0" index="0" disallow="pedestrian" speed="2.85" length="1.48" shape="328.91,208.20 329.51,208.10 329.83,207.96 329.87,207.77 329.64,207.54"/>
    </edge>
    <edge id=":J24_5" function="internal">
        <lane id=":J24_5_0" index="0" disallow="pedestrian tram rail_urban rail rail_electric rail_fast ship" speed="5.93" length="9.14" shape="335.14,217.18 335.55,214.91 334.84,213.26 333.03,212.23 330.10,211.82"/>
    </edge>
    <edge id=":J24_6" function="internal">
        <lane id=":J24_6_0" index="0" disallow="pedestrian tram rail_urban rail rail_electric rail_fast ship" speed="8.11" length="11.95" shape="335.14,217.18 335.46,214.80 334.65,212.41 332.71,209.99 329.64,207.54"/>
        <lane id=":J24_6_1" index="1" disallow="pedestrian tram rail_urban rail rail_electric rail_fast ship" speed="9.14" length="15.40" shape="338.19,218.16 338.78,214.76 337.96,211.48 335.73,208.34 332.09,205.34"/>
    </edge>
    <edge id=":J24_w0" function="walkingarea">
        <lane id=":J24_w0_0" index="0" allow="pedestrian" speed="2.78" length="3.81" width="3.20" shape="328.74,206.61 329.08,209.79 330.15,210.22 330.05,213.42 333.88,215.42 333.69,214.18 333.08,212.91 332.05,211.60 330.61,210.25"/>
    </edge>
    <edge id=":J25_0" function="internal">
        <lane id=":J25_0_0" index="0" disallow="pedestrian" speed="13.89" length="12.01" shape="307.33,192.44 304.72,190.05 303.57,187.79 302.61,185.32 300.53,182.32"/>
        <lane id=":J25_0_1" index="1" disallow="pedestrian" speed="13.89" length="12.01" shape="309.13,189.79 306.70,187.53 305.68,185.37 304.83,183.01 302.90,180.17"/>
    </edge>
    <edge id=":J25_2" function="internal">
        <lane id=":J25_2_0" index="0" disallow="pedestrian" speed="13.89" length="9.58" shape="310.02,173.73 311.70,175.56 312.92,176.74 314.26,177.78 316.31,179.19"/>
        <lane id=":J25_2_1" index="1" disallow="pedestrian" speed="13.89" length="9.58" shape="307.65,175.88 309.48,177.87 310.81,179.17 312.28,180.31 314.51,181.84"/>
        <lane id=":J25_2_2" index="2" disallow="pedestrian" speed="13.89" length="9.58" shape="305.28,178.02 307.26,180.19 308.71,181.59 310.30,182.83 312.72,184.49"/>
        <lane id=":J25_2_3" index="3" disallow="pedestrian" speed="13.89" length="9.58" shape="305.28,178.02 307.05,180.70 307.78,182.94 308.67,185.00 310.92,187.14"/>
    </edge>
    <edge id=":J30_0" function="internal">
        <lane id=":J30_0_0" index="0" disallow="pedestrian tram rail_urban rail rail_electric rail_fast ship" speed="13.89" length="23.19" shape="403.98,323.88 398.29,321.24 394.12,319.94 389.76,319.68 383.52,320.18"/>
        <lane id=":J30_0_1" index="1" disallow="pedestrian tram rail_urban rail rail_electric rail_fast ship" speed="13.89" length="23.19" shape="405.37,321.00 399.17,318.13 394.62,316.73 389.87,316.46 383.05,317.01"/>
        <lane id=":J30_0_2" index="2" disallow="pedestrian tram rail_urban rail rail_electric rail_fast ship" speed="13.89" length="23.19" shape="406.76,318.12 400.05,315.02 395.12,313.51 389.97,313.24 382.59,313.84"/>
    </edge>
    <edge id=":J30_3" function="internal">
        <lane id=":J30_3_0" index="0" disallow="pedestrian tram rail_urban rail rail_electric rail_fast ship" speed="13.89" length="19.38" shape="403.15,313.91 398.79,317.66 395.58,320.03 392.62,322.61 389.00,327.02"/>
        <lane id=":J30_3_1" index="1" disallow="pedestrian tram rail_urban rail rail_electric rail_fast ship" speed="13.89" length="18.53" shape="399.93,312.56 395.76,316.16 392.70,318.43 389.87,320.91 386.41,325.13"/>
    </edge>
    <edge id=":J30_5" function="internal">
        <lane id=":J30_5_0" index="0" disallow="pedestrian tram rail_urban rail rail_electric rail_fast ship" speed="13.89" length="16.37" shape="399.93,312.56 395.86,316.25 392.64,318.37 388.96,319.49 383.52,320.18"/>
        <lane id=":J30_5_1" index="1" disallow="pedestrian tram rail_urban rail rail_electric rail_fast ship" speed="13.89" length="16.37" shape="396.78,311.14 393.39,314.12 390.67,315.72 387.57,316.50 383.05,317.01"/>
        <lane id=":J30_5_2" index="2" disallow="pedestrian tram rail_urban rail rail_electric rail_fast ship" speed="13.89" length="16.37" shape="396.78,311.14 393.36,313.56 390.42,314.09 387.10,313.81 382.59,313.84"/>
    </edge>
    <edge id=":J31_0" function="internal">
        <lane id=":J31_0_0" index="0" disallow="pedestrian tram rail_urban rail rail_electric rail_fast ship" speed="13.89" length="17.35" shape="327.32,321.26 325.99,316.13 325.00,312.62 324.28,309.07 323.74,303.81"/>
        <lane id=":J31_0_1" index="1" disallow="pedestrian tram rail_urban rail rail_electric rail_fast ship" speed="13.89" length="17.35" shape="330.44,320.53 329.13,315.54 328.17,312.13 327.46,308.68 326.93,303.58"/>
        <lane id=":J31_0_2" index="2" disallow="pedestrian tram rail_urban rail rail_electric rail_fast ship" speed="13.89" length="17.35" shape="333.55,319.79 332.28,314.95 331.34,311.64 330.64,308.30 330.13,303.35"/>
    </edge>
    <edge id=":J31_3" function="internal">
        <lane id=":J31_3_0" index="0" disallow="pedestrian tram rail_urban rail rail_electric rail_fast ship" speed="10.75" length="15.79" shape="337.59,315.94 331.76,313.84 327.51,311.12 324.84,307.77 323.74,303.81"/>
        <lane id=":J31_3_1" index="1" disallow="pedestrian tram rail_urban rail rail_electric rail_fast ship" speed="9.68" length="15.79" shape="338.52,312.88 333.62,311.17 330.06,309.05 327.83,306.52 326.93,303.58"/>
        <lane id=":J31_3_2" index="2" disallow="pedestrian tram rail_urban rail rail_electric rail_fast ship" speed="8.49" length="15.79" shape="339.46,309.82 335.48,308.50 332.60,306.98 330.82,305.26 330.13,303.35"/>
    </edge>
    <edge id=":J33_0" function="internal">
        <lane id=":J33_0_0" index="0" disallow="pedestrian tram rail_urban rail rail_electric rail_fast ship" speed="13.89" length="19.56" shape="320.58,260.00 320.67,254.27 321.82,250.44 323.73,246.73 326.14,241.32"/>
        <lane id=":J33_0_1" index="1" disallow="pedestrian tram rail_urban rail rail_electric rail_fast ship" speed="13.89" length="19.56" shape="323.77,259.77 323.90,254.21 325.10,250.51 327.04,246.92 329.42,241.68"/>
    </edge>
    <edge id=":J33_2" function="internal">
        <lane id=":J33_2_0" index="0" disallow="pedestrian tram rail_urban rail rail_electric rail_fast ship" speed="10.01" length="17.64" shape="323.77,259.77 323.71,252.44 324.74,246.99 326.84,243.42 330.03,241.74"/>
        <lane id=":J33_2_1" index="1" disallow="pedestrian tram rail_urban rail rail_electric rail_fast ship" speed="9.16" length="17.64" shape="326.96,259.55 326.92,253.46 327.78,248.93 329.54,245.97 332.21,244.57"/>
        <lane id=":J33_2_2" index="2" disallow="pedestrian tram rail_urban rail rail_electric rail_fast ship" speed="8.64" length="17.64" shape="326.96,259.55 327.09,254.85 328.24,251.29 330.40,248.86 333.59,247.56"/>
    </edge>
    <edge id=":J34_0" function="internal">
        <lane id=":J34_0_0" index="0" disallow="pedestrian tram rail_urban rail rail_electric rail_fast ship" speed="13.89" length="15.65" shape="371.54,226.11 374.93,229.75 377.82,231.65 381.16,232.94 385.92,234.77"/>
        <lane id=":J34_0_1" index="1" disallow="pedestrian tram rail_urban rail rail_electric rail_fast ship" speed="13.89" length="15.65" shape="371.83,231.56 374.80,234.46 377.46,235.65 380.51,236.34 384.64,237.70"/>
        <lane id=":J34_0_2" index="2" disallow="pedestrian tram rail_urban rail rail_electric rail_fast ship" speed="13.89" length="15.65" shape="369.92,234.29 373.32,236.92 376.61,237.50 379.91,238.07 383.35,240.67"/>
    </edge>
    <edge id=":J34_3" function="internal">
        <lane id=":J34_3_0" index="0" disallow="pedestrian tram rail_urban rail rail_electric rail_fast ship" speed="12.02" length="21.34" shape="369.89,234.12 373.02,232.60 375.93,229.21 378.62,223.98 381.11,216.89"/>
        <lane id=":J34_3_1" index="1" disallow="pedestrian tram rail_urban rail rail_electric rail_fast ship" speed="12.94" length="24.84" shape="370.46,237.27 374.47,235.47 378.09,231.62 381.33,225.73 384.17,217.79"/>
    </edge>
    <edge id=":J34_5" function="internal">
        <lane id=":J34_5_0" index="0" disallow="pedestrian tram rail_urban rail rail_electric rail_fast ship" speed="13.89" length="14.42" shape="370.46,237.27 375.11,235.84 378.38,234.33 381.55,233.66 385.92,234.77"/>
        <lane id=":J34_5_1" index="1" disallow="pedestrian tram rail_urban rail rail_electric rail_fast ship" speed="13.89" length="14.42" shape="371.02,240.42 375.13,239.08 378.00,237.56 380.78,236.80 384.64,237.70"/>
        <lane id=":J34_5_2" index="2" disallow="pedestrian tram rail_urban rail rail_electric rail_fast ship" speed="9.54" length="14.42" shape="371.02,240.42 375.73,239.71 379.36,239.51 381.89,239.83 383.35,240.67"/>
    </edge>
    <edge id=":J35_0" function="internal">
        <lane id=":J35_0_0" index="0" disallow="pedestrian tram rail_urban rail rail_electric rail_fast ship" speed="13.89" length="18.78" shape="415.79,276.16 418.63,280.96 420.65,284.19 422.83,287.33 426.13,291.82"/>
        <lane id=":J35_0_1" index="1" disallow="pedestrian tram rail_urban rail rail_electric rail_fast ship" speed="13.89" length="20.04" shape="412.57,276.99 415.59,282.11 417.73,285.57 420.04,288.92 423.55,293.72"/>
        <lane id=":J35_0_2" index="2" disallow="pedestrian tram rail_urban rail rail_electric rail_fast ship" speed="13.89" length="21.29" shape="409.34,277.82 412.55,283.26 414.81,286.95 417.25,290.52 420.98,295.63"/>
    </edge>
    <edge id=":J35_3" function="internal">
        <lane id=":J35_3_0" index="0" disallow="pedestrian tram rail_urban rail rail_electric rail_fast ship" speed="13.89" length="12.27" shape="409.34,277.82 411.31,281.13 412.47,283.58 412.94,286.19 412.84,289.99"/>
        <lane id=":J35_3_1" index="1" disallow="pedestrian tram rail_urban rail rail_electric rail_fast ship" speed="13.70" length="12.27" shape="409.34,277.82 410.65,280.80 410.74,283.11 410.22,285.55 409.70,288.96"/>
    </edge>
    <edge id=":J35_5" function="internal">
        <lane id=":J35_5_0" index="0" disallow="pedestrian tram rail_urban rail rail_electric rail_fast ship" speed="13.89" length="12.91" shape="412.61,276.98 413.95,281.11 415.15,283.92 415.92,286.77 415.97,291.02"/>
        <lane id=":J35_5_1" index="1" disallow="pedestrian tram rail_urban rail rail_electric rail_fast ship" speed="13.89" length="12.91" shape="409.51,277.77 410.75,281.38 411.93,283.82 412.74,286.28 412.84,289.99"/>
        <lane id=":J35_5_2" index="2" disallow="pedestrian tram rail_urban rail rail_electric rail_fast ship" speed="13.89" length="12.91" shape="409.51,277.77 410.17,281.03 410.28,283.31 410.04,285.62 409.70,288.96"/>
    </edge>

    <edge id="-E15" from="J19" to="J18" priority="-1">
        <lane id="-E15_0" index="0" disallow="pedestrian" speed="13.89" length="14.70" shape="389.78,181.46 392.61,195.89"/>
        <lane id="-E15_1" index="1" disallow="pedestrian" speed="13.89" length="14.70" shape="386.64,182.08 389.47,196.51"/>
    </edge>
    <edge id="-E17" from="J21" to="J20" priority="-1">
        <lane id="-E17_0" index="0" disallow="pedestrian" speed="13.89" length="8.82" shape="368.49,354.12 369.18,345.33"/>
        <lane id="-E17_1" index="1" disallow="pedestrian" speed="13.89" length="8.82" shape="371.68,354.38 372.37,345.58"/>
        <lane id="-E17_2" index="2" disallow="pedestrian" speed="13.89" length="8.82" shape="374.87,354.63 375.56,345.83"/>
    </edge>
    <edge id="-E21" from="J25" to="J24" priority="-1">
        <lane id="-E21_0" index="0" disallow="pedestrian" speed="13.89" length="29.72" shape="316.31,179.19 341.90,196.52"/>
        <lane id="-E21_1" index="1" disallow="pedestrian" speed="13.89" length="29.72" shape="314.51,181.84 339.45,198.73"/>
        <lane id="-E21_2" index="2" disallow="pedestrian" speed="13.89" length="29.72" shape="312.72,184.49 337.00,200.93"/>
        <lane id="-E21_3" index="3" disallow="pedestrian" speed="13.89" length="29.72" shape="310.92,187.14 334.55,203.13"/>
    </edge>
    <edge id="-E24" from="J26" to="J23" priority="-1">
        <lane id="-E24_0" index="0" disallow="pedestrian" speed="13.89" length="26.64" shape="469.90,372.26 453.10,349.78"/>
        <lane id="-E24_1" index="1" disallow="pedestrian" speed="13.89" length="26.64" shape="472.47,370.35 457.37,350.15"/>
    </edge>
    <edge id="-E25" from="J27" to="J21" priority="-1">
        <lane id="-E25_0" index="0" disallow="pedestrian" speed="13.89" length="45.86" shape="369.16,408.25 371.18,362.44"/>
        <lane id="-E25_1" index="1" disallow="pedestrian" speed="13.89" length="45.86" shape="372.36,408.39 374.38,362.58"/>
    </edge>
    <edge id="-E26" from="J28" to="J19" priority="-1">
        <lane id="-E26_0" index="0" disallow="pedestrian" speed="13.89" length="45.10" shape="391.58,136.02 389.75,181.09"/>
        <lane id="-E26_1" index="1" disallow="pedestrian" speed="13.89" length="45.10" shape="388.38,135.89 386.55,180.96"/>
    </edge>
    <edge id="-E27" from="J29" to="J25" priority="-1">
        <lane id="-E27_0" index="0" disallow="pedestrian" speed="13.89" length="14.29" shape="300.43,163.13 310.02,173.73"/>
        <lane id="-E27_1" index="1" disallow="pedestrian" speed="13.89" length="14.29" shape="298.06,165.28 307.65,175.88"/>
        <lane id="-E27_2" index="2" disallow="pedestrian" speed="13.89" length="14.29" shape="295.69,167.43 305.28,178.02"/>
    </edge>
    <edge id="-E5" from="J0" to="J24" priority="-1" shape="261.36,216.01 310.45,211.76 328.50,209.85">
        <lane id="-E5_0" index="0" speed="13.89" length="67.97" shape="261.22,214.42 310.30,210.17 328.91,208.20"/>
    </edge>
    <edge id="E0" from="J35" to="J23" priority="12" type="highway.primary">
        <lane id="E0_0" index="0" disallow="pedestrian tram rail_urban rail rail_electric rail_fast ship" speed="13.89" length="43.26" shape="426.13,291.82 446.03,318.77"/>
        <lane id="E0_1" index="1" disallow="pedestrian tram rail_urban rail rail_electric rail_fast ship" speed="13.89" length="43.26" shape="423.55,293.72 443.47,320.69"/>
        <lane id="E0_2" index="2" disallow="pedestrian tram rail_urban rail rail_electric rail_fast ship" speed="13.89" length="43.26" shape="420.98,295.63 458.25,346.10"/>
    </edge>
    <edge id="E1" from="J23" to="J30" priority="12" type="highway.primary">
        <lane id="E1_0" index="0" disallow="pedestrian tram rail_urban rail rail_electric rail_fast ship" speed="13.89" length="41.49" shape="434.73,338.80 403.98,323.88"/>
        <lane id="E1_1" index="1" disallow="pedestrian tram rail_urban rail rail_electric rail_fast ship" speed="13.89" length="41.49" shape="435.77,335.74 405.37,321.00"/>
        <lane id="E1_2" index="2" disallow="pedestrian tram rail_urban rail rail_electric rail_fast ship" speed="13.89" length="41.49" shape="457.59,342.77 406.76,318.12"/>
    </edge>
    <edge id="E15" from="J18" to="J19" priority="-1">
        <lane id="E15_0" index="0" disallow="pedestrian" speed="13.89" length="14.70" shape="383.19,197.74 380.36,183.32"/>
        <lane id="E15_1" index="1" disallow="pedestrian" speed="13.89" length="14.70" shape="386.33,197.12 383.50,182.70"/>
    </edge>
    <edge id="E17" from="J20" to="J21" priority="-1">
        <lane id="E17_0" index="0" disallow="pedestrian" speed="13.89" length="8.82" shape="381.94,346.34 381.25,355.13"/>
        <lane id="E17_1" index="1" disallow="pedestrian" speed="13.89" length="8.82" shape="378.75,346.09 378.06,354.88"/>
    </edge>
    <edge id="E2" from="J23" to="J20" priority="12" type="highway.primary">
        <lane id="E2_0" index="0" disallow="pedestrian tram rail_urban rail rail_electric rail_fast ship" speed="13.89" length="45.47" shape="434.98,338.06 389.56,335.95"/>
    </edge>
    <edge id="E21" from="J24" to="J25" priority="-1">
        <lane id="E21_0" index="0" disallow="pedestrian" speed="13.89" length="27.33" shape="329.64,207.54 307.33,192.44"/>
        <lane id="E21_1" index="1" disallow="pedestrian" speed="13.89" length="27.33" shape="332.09,205.34 309.13,189.79"/>
    </edge>
    <edge id="E22" from="J24" to="J18" priority="-1" shape="342.72,210.60 367.53,205.02 389.56,205.25">
        <lane id="E22_0" index="0" disallow="pedestrian" speed="13.89" length="16.61" shape="361.91,204.64 367.36,203.42 378.38,203.53"/>
    </edge>
    <edge id="E24" from="J23" to="J26" priority="-1">
        <lane id="E24_0" index="0" disallow="pedestrian" speed="13.89" length="25.45" shape="464.85,344.12 480.16,364.60"/>
        <lane id="E24_1" index="1" disallow="pedestrian" speed="13.89" length="25.45" shape="462.36,346.13 477.60,366.52"/>
        <lane id="E24_2" index="2" disallow="pedestrian" speed="13.89" length="25.45" shape="459.87,348.14 475.03,368.43"/>
    </edge>
    <edge id="E25" from="J21" to="J27" priority="-1">
        <lane id="E25_0" index="0" disallow="pedestrian" speed="13.89" length="45.86" shape="380.77,362.86 378.76,408.67"/>
        <lane id="E25_1" index="1" disallow="pedestrian" speed="13.89" length="45.86" shape="377.58,362.72 375.56,408.53"/>
    </edge>
    <edge id="E26" from="J19" to="J28" priority="-1">
        <lane id="E26_0" index="0" disallow="pedestrian" speed="13.89" length="45.10" shape="380.15,180.70 381.98,135.64"/>
        <lane id="E26_1" index="1" disallow="pedestrian" speed="13.89" length="45.10" shape="383.35,180.83 385.18,135.77"/>
    </edge>
    <edge id="E27" from="J25" to="J29" priority="-1">
        <lane id="E27_0" index="0" disallow="pedestrian" speed="13.89" length="14.29" shape="300.53,182.32 290.94,171.72"/>
        <lane id="E27_1" index="1" disallow="pedestrian" speed="13.89" length="14.29" shape="302.90,180.17 293.31,169.57"/>
    </edge>
    <edge id="E3" from="J18" to="J23" priority="12" type="highway.primary" shape="389.56,205.25 441.67,317.62 449.65,337.14">
        <lane id="E3_0" index="0" disallow="pedestrian tram rail_urban rail rail_electric rail_fast ship" speed="13.89" length="88.76" shape="407.17,239.42 443.14,316.98 444.37,320.01"/>
    </edge>
    <edge id="E39" from="J30" to="J20" priority="12" type="highway.primary">
        <lane id="E39_0" index="0" disallow="pedestrian tram rail_urban rail rail_electric rail_fast ship" speed="13.89" length="3.82" shape="389.00,327.02 386.75,330.10"/>
        <lane id="E39_1" index="1" disallow="pedestrian tram rail_urban rail rail_electric rail_fast ship" speed="13.89" length="3.82" shape="386.41,325.13 384.17,328.22"/>
    </edge>
    <edge id="E4" from="J31" to="J33" priority="12" type="highway.primary">
        <lane id="E4_0" index="0" disallow="pedestrian tram rail_urban rail rail_electric rail_fast ship" speed="13.89" length="43.92" shape="323.74,303.81 320.58,260.00"/>
        <lane id="E4_1" index="1" disallow="pedestrian tram rail_urban rail rail_electric rail_fast ship" speed="13.89" length="43.92" shape="326.93,303.58 323.77,259.77"/>
        <lane id="E4_2" index="2" disallow="pedestrian tram rail_urban rail rail_electric rail_fast ship" speed="13.89" length="43.92" shape="330.13,303.35 326.96,259.55"/>
    </edge>
    <edge id="E40" from="J20" to="J31" priority="12" type="highway.primary" shape="378.11,333.82 336.27,324.33 331.92,305.97">
        <lane id="E40_0" index="0" disallow="pedestrian tram rail_urban rail rail_electric rail_fast ship" speed="13.89" length="41.76" shape="364.46,338.93 329.64,331.03 327.32,321.26"/>
        <lane id="E40_1" index="1" disallow="pedestrian tram rail_urban rail rail_electric rail_fast ship" speed="13.89" length="41.76" shape="365.17,335.81 332.29,328.35 330.44,320.53"/>
        <lane id="E40_2" index="2" disallow="pedestrian tram rail_urban rail rail_electric rail_fast ship" speed="13.89" length="41.76" shape="365.88,332.69 334.94,325.67 333.55,319.79"/>
    </edge>