<?xml version="1.0" encoding="UTF-8"?>

<!-- generated on 2025-02-24 14:37:41 by Eclipse SUMO netedit Version 1.22.0
<neteditConfiguration xmlns:xsi="http://www.w3.org/2001/XMLSchema-instance" xsi:noNamespaceSchemaLocation="http://sumo.dlr.de/xsd/neteditConfiguration.xsd">

    <input>
        <sumocfg-file value="C:\Users\Ректор\Downloads\TrafficSimulation-main\TrafficSimulation-main\test_opt_our1_roundabout\test.sumocfg"/>
        <additional-files value=""/>
        <route-files value="C:\Users\Ректор\Downloads\TrafficSimulation-main\TrafficSimulation-main\test_opt_our1_roundabout\test.rou.xml"/>
        <sumo-net-file value="C:\Users\Ректор\Downloads\TrafficSimulation-main\TrafficSimulation-main\test_opt_our1_roundabout\our_project.net.xml"/>
    </input>

    <output>
        <output-file value="C:\Users\Ректор\Downloads\TrafficSimulation-main\TrafficSimulation-main\test_opt_our1_roundabout\our_project.net.xml"/>
    </output>

    <processing>
        <geometry.min-radius.fix.railways value="false"/>
        <geometry.max-grade.fix value="false"/>
        <offset.disable-normalization value="true"/>
        <lefthand value="0"/>
    </processing>

    <junctions>
        <no-internal-links value="false"/>
        <no-turnarounds value="true"/>
        <junctions.corner-detail value="5"/>
        <junctions.limit-turn-speed value="5.50"/>
        <rectangular-lane-cut value="0"/>
    </junctions>

    <pedestrian>
        <walkingareas value="1"/>
    </pedestrian>

    <netedit>
        <ignore.routeelements value="false"/>
    </netedit>

</neteditConfiguration>
-->

<net version="1.20" junctionCornerDetail="5" walkingareas="true" limitTurnSpeed="5.50" xmlns:xsi="http://www.w3.org/2001/XMLSchema-instance" xsi:noNamespaceSchemaLocation="http://sumo.dlr.de/xsd/net_file.xsd">

    <location netOffset="-286081.53,-5527030.91" convBoundary="271.05,135.83,473.75,408.46" origBoundary="24.023652,49.857550,24.029778,49.863403" projParameter="+proj=utm +zone=35 +ellps=WGS84 +datum=WGS84 +units=m +no_defs"/>

    <type id="highway.primary" priority="12" numLanes="2" speed="13.89" disallow="pedestrian tram rail_urban rail rail_electric rail_fast ship" oneway="0" sidewalkWidth="3.00"/>

    <edge id=":J16_w0" function="walkingarea">
        <lane id=":J16_w0_0" index="0" allow="pedestrian" speed="2.78" length="3.20" width="6.40" shape="271.05,252.93 270.25,249.83 271.85,256.03 271.05,252.93"/>
    </edge>
    <edge id=":J17_0" function="internal">
        <lane id=":J17_0_0" index="0" disallow="pedestrian tram rail_urban rail rail_electric rail_fast ship" speed="6.61" length="7.07" shape="321.25,245.60 320.05,244.17 318.63,243.29 316.99,242.97 315.14,243.20"/>
    </edge>
    <edge id=":J17_1" function="internal">
        <lane id=":J17_1_0" index="0" disallow="pedestrian tram rail_urban rail rail_electric rail_fast ship" speed="8.66" length="19.64" shape="321.25,245.60 318.92,240.49 318.98,236.22 321.43,232.77 326.29,230.15"/>
        <lane id=":J17_1_1" index="1" disallow="pedestrian tram rail_urban rail rail_electric rail_fast ship" speed="7.30" length="13.60" shape="323.95,243.87 322.32,240.32 322.35,237.36 324.04,234.97 327.39,233.16"/>
        <lane id=":J17_1_2" index="2" disallow="pedestrian tram rail_urban rail rail_electric rail_fast ship" speed="5.62" length="7.56" shape="326.64,242.14 325.72,240.15 325.72,238.50 326.64,237.17 328.48,236.17"/>
    </edge>
    <edge id=":J17_4" function="internal">
        <lane id=":J17_4_0" index="0" disallow="pedestrian tram rail_urban rail rail_electric rail_fast ship" speed="13.89" length="15.78" shape="314.34,240.10 317.22,238.39 319.39,235.65 322.02,232.65 326.29,230.15"/>
    </edge>
    <edge id=":J17_w0" function="walkingarea">
        <lane id=":J17_w0_0" index="0" allow="pedestrian" speed="2.78" length="3.20" width="3.20" shape="313.94,238.55 314.74,241.65 315.54,244.75 317.80,242.43 316.93,238.83 317.29,235.65 318.88,232.89 321.70,230.56"/>
    </edge>
    <edge id=":J18_0" function="internal">
        <lane id=":J18_0_0" index="0" disallow="pedestrian tram rail_urban rail rail_electric rail_fast ship" speed="13.89" length="23.12" shape="388.18,211.29 388.25,218.41 389.08,224.66 390.44,229.87 392.11,233.85"/>
    </edge>
    <edge id=":J18_1" function="internal">
        <lane id=":J18_1_0" index="0" disallow="pedestrian tram rail_urban rail rail_electric rail_fast ship" speed="13.89" length="23.73" shape="388.18,211.29 387.05,234.98"/>
        <lane id=":J18_1_1" index="1" disallow="pedestrian tram rail_urban rail rail_electric rail_fast ship" speed="13.89" length="23.73" shape="384.99,211.13 383.85,234.84"/>
    </edge>
    <edge id=":J18_3" function="internal">
        <lane id=":J18_3_0" index="0" disallow="pedestrian" speed="6.05" length="9.07" shape="372.50,215.09 375.05,215.47 376.92,214.88 378.10,213.32 378.60,210.79"/>
    </edge>
    <edge id=":J18_4" function="internal">
        <lane id=":J18_4_0" index="0" disallow="pedestrian tram rail_urban rail rail_electric rail_fast ship" speed="13.89" length="13.05" shape="375.26,222.08 377.23,219.16 378.14,216.88 378.44,214.38 378.60,210.79"/>
        <lane id=":J18_4_1" index="1" disallow="pedestrian tram rail_urban rail rail_electric rail_fast ship" speed="13.89" length="13.05" shape="377.81,224.01 380.12,220.63 381.21,218.00 381.60,215.11 381.79,210.96"/>
    </edge>
    <edge id=":J19_0" function="internal">
        <lane id=":J19_0_0" index="0" disallow="pedestrian" speed="13.89" length="0.33" shape="389.72,181.70 389.71,182.05"/>
        <lane id=":J19_0_1" index="1" disallow="pedestrian" speed="13.89" length="0.33" shape="386.52,181.57 386.51,181.88"/>
    </edge>
    <edge id=":J19_2" function="internal">
        <lane id=":J19_2_0" index="0" disallow="pedestrian" speed="13.89" length="0.26" shape="380.12,181.55 380.13,181.31"/>
        <lane id=":J19_2_1" index="1" disallow="pedestrian" speed="13.89" length="0.26" shape="383.31,181.71 383.33,181.44"/>
    </edge>
    <edge id=":J20_0" function="internal">
        <lane id=":J20_0_0" index="0" disallow="pedestrian" speed="9.77" length="11.29" shape="389.99,320.72 387.44,322.55 385.55,324.64 384.31,326.99 383.72,329.60"/>
    </edge>
    <edge id=":J20_1" function="internal">
        <lane id=":J20_1_0" index="0" disallow="pedestrian tram rail_urban rail rail_electric rail_fast ship" speed="13.89" length="12.30" shape="386.47,317.97 385.40,321.37 384.67,323.70 384.15,326.08 383.72,329.60"/>
        <lane id=":J20_1_1" index="1" disallow="pedestrian tram rail_urban rail rail_electric rail_fast ship" speed="13.89" length="12.30" shape="383.40,317.06 382.28,320.63 381.52,323.09 380.98,325.60 380.54,329.30"/>
    </edge>
    <edge id=":J20_3" function="internal">
        <lane id=":J20_3_0" index="0" disallow="pedestrian tram rail_urban rail rail_electric rail_fast ship" speed="9.27" length="5.94" shape="374.16,328.70 374.27,327.24 374.20,326.22 373.86,325.26 373.18,323.96"/>
        <lane id=":J20_3_1" index="1" disallow="pedestrian tram rail_urban rail rail_electric rail_fast ship" speed="10.85" length="5.94" shape="377.35,329.00 377.50,326.98 377.39,325.56 376.93,324.22 375.99,322.42"/>
    </edge>
    <edge id=":J21_0" function="internal">
        <lane id=":J21_0_0" index="0" disallow="pedestrian" speed="13.89" length="0.16" shape="380.94,359.00 380.94,359.08"/>
        <lane id=":J21_0_1" index="1" disallow="pedestrian" speed="13.89" length="0.16" shape="377.76,358.70 377.74,358.94"/>
    </edge>
    <edge id=":J21_2" function="internal">
        <lane id=":J21_2_0" index="0" disallow="pedestrian" speed="13.89" length="0.48" shape="371.35,358.66 371.39,358.10"/>
        <lane id=":J21_2_1" index="1" disallow="pedestrian" speed="13.89" length="0.48" shape="374.54,358.80 374.57,358.40"/>
    </edge>
    <edge id=":J22_0" function="internal">
        <lane id=":J22_0_0" index="0" disallow="pedestrian" speed="9.26" length="16.20" shape="410.95,313.49 408.86,312.48 405.67,312.75 401.38,314.33 395.98,317.19"/>
    </edge>
    <edge id=":J22_1" function="internal">
        <lane id=":J22_1_0" index="0" disallow="pedestrian tram rail_urban rail rail_electric rail_fast ship" speed="12.25" length="14.50" shape="410.95,313.49 408.54,313.03 403.84,312.75 399.08,312.60 396.50,312.55"/>
        <lane id=":J22_1_1" index="1" disallow="pedestrian tram rail_urban rail rail_electric rail_fast ship" speed="13.23" length="17.00" shape="413.30,311.32 411.65,310.54 408.31,309.96 403.27,309.56 396.55,309.35"/>
        <lane id=":J22_1_2" index="2" disallow="pedestrian tram rail_urban rail rail_electric rail_fast ship" speed="13.89" length="19.52" shape="415.65,309.15 413.51,307.93 409.62,307.02 403.98,306.43 396.59,306.15"/>
    </edge>
    <edge id=":J22_4" function="internal">
        <lane id=":J22_4_0" index="0" disallow="pedestrian tram rail_urban rail rail_electric rail_fast ship" speed="13.89" length="7.64" shape="418.55,297.08 419.61,298.85 420.40,300.02 421.31,301.11 422.70,302.63"/>
        <lane id=":J22_4_1" index="1" disallow="pedestrian tram rail_urban rail rail_electric rail_fast ship" speed="13.89" length="7.64" shape="415.79,298.71 416.96,300.65 417.83,301.94 418.82,303.13 420.35,304.80"/>
        <lane id=":J22_4_2" index="2" disallow="pedestrian tram rail_urban rail rail_electric rail_fast ship" speed="13.89" length="7.64" shape="413.04,300.33 414.31,302.45 415.25,303.85 416.33,305.15 418.00,306.97"/>
    </edge>
    <edge id=":J23_0" function="internal">
        <lane id=":J23_0_0" index="0" disallow="pedestrian" speed="13.89" length="21.07" shape="429.64,329.13 425.20,325.07 421.54,322.68 417.82,320.22 413.18,315.91"/>
        <lane id=":J23_0_1" index="1" disallow="pedestrian" speed="13.89" length="21.07" shape="431.98,326.95 427.54,322.89 423.88,320.51 420.16,318.04 415.53,313.74"/>
        <lane id=":J23_0_2" index="2" disallow="pedestrian" speed="13.89" length="21.07" shape="431.98,326.95 417.88,311.57"/>
    </edge>
    <edge id=":J23_3" function="internal">
        <lane id=":J23_3_0" index="0" disallow="pedestrian tram rail_urban rail rail_electric rail_fast ship" speed="13.89" length="20.83" shape="428.37,302.62 430.02,306.20 431.91,310.33 434.69,315.05 439.00,320.40"/>
    </edge>
    <edge id=":J23_4" function="internal">
        <lane id=":J23_4_0" index="0" disallow="pedestrian" speed="13.89" length="20.84" shape="424.93,305.05 439.00,320.40"/>
        <lane id=":J23_4_1" index="1" disallow="pedestrian" speed="13.89" length="20.84" shape="422.58,307.22 436.66,322.58"/>
        <lane id=":J23_4_2" index="2" disallow="pedestrian" speed="13.89" length="20.84" shape="420.23,309.39 434.32,324.77"/>
    </edge>
    <edge id=":J24_0" function="internal">
        <lane id=":J24_0_0" index="0" disallow="pedestrian tram rail_urban rail rail_electric rail_fast ship" speed="6.91" length="5.09" shape="340.58,217.91 340.37,216.62 339.90,215.47 339.16,214.48 338.17,213.63"/>
        <lane id=":J24_0_1" index="1" disallow="pedestrian tram rail_urban rail rail_electric rail_fast ship" speed="8.51" length="7.99" shape="343.77,217.72 343.44,215.69 342.70,213.90 341.55,212.33 339.99,211.00"/>
    </edge>
    <edge id=":J24_2" function="internal">
        <lane id=":J24_2_0" index="0" disallow="pedestrian" speed="13.89" length="25.30" shape="347.26,200.46 354.30,205.39 360.03,209.34 364.71,212.23 368.60,213.93"/>
    </edge>
    <edge id=":J24_3" function="internal">
        <lane id=":J24_3_0" index="0" disallow="pedestrian tram rail_urban rail rail_electric rail_fast ship" speed="13.89" length="18.74" shape="345.44,203.10 350.08,206.49 353.00,209.14 355.66,212.09 359.52,216.40"/>
        <lane id=":J24_3_1" index="1" disallow="pedestrian tram rail_urban rail rail_electric rail_fast ship" speed="13.89" length="18.74" shape="343.62,205.73 348.09,209.01 350.90,211.57 353.46,214.42 357.17,218.57"/>
        <lane id=":J24_3_2" index="2" disallow="pedestrian tram rail_urban rail rail_electric rail_fast ship" speed="13.89" length="18.74" shape="341.80,208.36 346.10,211.52 348.80,213.99 351.25,216.74 354.82,220.74"/>
    </edge>
    <edge id=":J25_0" function="internal">
        <lane id=":J25_0_0" index="0" disallow="pedestrian" speed="13.89" length="11.89" shape="306.88,192.04 304.31,189.65 303.21,187.40 302.27,184.95 300.22,181.98"/>
        <lane id=":J25_0_1" index="1" disallow="pedestrian" speed="13.89" length="11.89" shape="308.70,189.40 306.31,187.14 305.32,184.98 304.50,182.65 302.59,179.83"/>
    </edge>
    <edge id=":J25_2" function="internal">
        <lane id=":J25_2_0" index="0" disallow="pedestrian" speed="13.89" length="9.53" shape="309.71,173.39 311.38,175.21 312.60,176.40 313.94,177.45 315.97,178.87"/>
        <lane id=":J25_2_1" index="1" disallow="pedestrian" speed="13.89" length="9.53" shape="307.34,175.53 309.16,177.52 310.48,178.81 311.94,179.96 314.15,181.50"/>
        <lane id=":J25_2_2" index="2" disallow="pedestrian" speed="13.89" length="9.53" shape="304.97,177.68 306.94,179.83 308.37,181.23 309.94,182.46 312.33,184.14"/>
        <lane id=":J25_2_3" index="3" disallow="pedestrian" speed="13.89" length="9.53" shape="304.97,177.68 306.72,180.34 307.44,182.57 308.30,184.63 310.51,186.77"/>
    </edge>
    <edge id=":J30_0" function="internal">
        <lane id=":J30_0_0" index="0" disallow="pedestrian tram rail_urban rail rail_electric rail_fast ship" speed="13.89" length="15.28" shape="396.30,312.54 391.49,312.60 388.17,312.68 384.92,312.34 380.30,311.18"/>
        <lane id=":J30_0_1" index="1" disallow="pedestrian tram rail_urban rail rail_electric rail_fast ship" speed="13.89" length="15.28" shape="396.35,309.35 391.80,309.41 388.66,309.50 385.58,309.20 381.22,308.11"/>
        <lane id=":J30_0_2" index="2" disallow="pedestrian tram rail_urban rail rail_electric rail_fast ship" speed="13.89" length="15.28" shape="396.39,306.15 392.11,306.22 389.15,306.32 386.25,306.07 382.14,305.04"/>
    </edge>
    <edge id=":J30_3" function="internal">
        <lane id=":J30_3_0" index="0" disallow="pedestrian tram rail_urban rail rail_electric rail_fast ship" speed="13.89" length="18.19" shape="393.26,300.78 392.85,306.07 391.11,309.45 388.75,312.76 386.50,317.86"/>
        <lane id=":J30_3_1" index="1" disallow="pedestrian tram rail_urban rail rail_electric rail_fast ship" speed="13.89" length="18.19" shape="390.07,301.01 389.64,305.97 387.91,309.10 385.60,312.17 383.43,316.94"/>
    </edge>
    <edge id=":J30_5" function="internal">
        <lane id=":J30_5_0" index="0" disallow="pedestrian tram rail_urban rail rail_electric rail_fast ship" speed="7.94" length="17.81" shape="390.07,301.01 389.82,306.66 388.11,310.24 384.94,311.74 380.30,311.18"/>
        <lane id=":J30_5_1" index="1" disallow="pedestrian tram rail_urban rail rail_electric rail_fast ship" speed="7.20" length="14.41" shape="390.07,301.01 389.79,305.19 388.22,307.77 385.36,308.74 381.22,308.11"/>
        <lane id=":J30_5_2" index="2" disallow="pedestrian tram rail_urban rail rail_electric rail_fast ship" speed="5.46" length="7.72" shape="386.88,301.24 386.73,303.48 385.89,304.86 384.36,305.38 382.14,305.04"/>
    </edge>
    <edge id=":J31_0" function="internal">
        <lane id=":J31_0_0" index="0" disallow="pedestrian tram rail_urban rail rail_electric rail_fast ship" speed="13.89" length="16.63" shape="367.54,313.70 364.83,309.67 362.39,307.31 359.87,305.01 356.89,301.14"/>
        <lane id=":J31_0_1" index="1" disallow="pedestrian tram rail_urban rail rail_electric rail_fast ship" speed="13.89" length="16.63" shape="370.34,312.16 367.60,308.07 365.14,305.67 362.60,303.34 359.58,299.41"/>
        <lane id=":J31_0_2" index="2" disallow="pedestrian tram rail_urban rail rail_electric rail_fast ship" speed="13.89" length="16.63" shape="370.34,312.16 362.27,297.68"/>
    </edge>
    <edge id=":J31_3" function="internal">
        <lane id=":J31_3_0" index="0" disallow="pedestrian tram rail_urban rail rail_electric rail_fast ship" speed="13.89" length="16.34" shape="372.92,308.97 367.49,307.72 363.50,306.91 360.22,305.17 356.89,301.14"/>
        <lane id=":J31_3_1" index="1" disallow="pedestrian tram rail_urban rail rail_electric rail_fast ship" speed="13.89" length="16.34" shape="373.84,305.90 369.04,304.87 365.48,304.29 362.54,302.89 359.58,299.41"/>
        <lane id=":J31_3_2" index="2" disallow="pedestrian tram rail_urban rail rail_electric rail_fast ship" speed="13.33" length="16.34" shape="374.75,302.84 370.59,302.01 367.45,301.66 364.85,300.61 362.27,297.68"/>
    </edge>
    <edge id=":J33_0" function="internal">
        <lane id=":J33_0_0" index="0" disallow="pedestrian tram rail_urban rail rail_electric rail_fast ship" speed="7.33" length="9.13" shape="337.07,226.23 338.76,225.21 339.91,223.58 340.53,221.35 340.61,218.50"/>
        <lane id=":J33_0_1" index="1" disallow="pedestrian tram rail_urban rail rail_electric rail_fast ship" speed="8.71" length="13.26" shape="338.16,229.24 340.83,227.71 342.65,225.38 343.65,222.25 343.81,218.31"/>
    </edge>
    <edge id=":J33_2" function="internal">
        <lane id=":J33_2_0" index="0" disallow="pedestrian tram rail_urban rail rail_electric rail_fast ship" speed="13.89" length="12.69" shape="338.16,229.24 342.06,227.22 344.73,225.27 347.42,224.16 351.38,224.64"/>
        <lane id=":J33_2_1" index="1" disallow="pedestrian tram rail_urban rail rail_electric rail_fast ship" speed="13.68" length="12.69" shape="338.16,229.24 341.70,227.85 344.26,227.00 346.85,226.88 350.44,227.70"/>
        <lane id=":J33_2_2" index="2" disallow="pedestrian tram rail_urban rail rail_electric rail_fast ship" speed="12.55" length="12.69" shape="339.26,232.24 342.22,231.05 344.35,230.27 346.50,230.10 349.51,230.76"/>
    </edge>
    <edge id=":J34_0" function="internal">
        <lane id=":J34_0_0" index="0" disallow="pedestrian tram rail_urban rail rail_electric rail_fast ship" speed="13.89" length="25.99" shape="359.65,216.54 377.35,235.26"/>
        <lane id=":J34_0_1" index="1" disallow="pedestrian tram rail_urban rail rail_electric rail_fast ship" speed="13.89" length="25.99" shape="357.31,218.72 375.17,237.60"/>
        <lane id=":J34_0_2" index="2" disallow="pedestrian tram rail_urban rail rail_electric rail_fast ship" speed="13.89" length="25.99" shape="354.96,220.89 372.99,239.94"/>
    </edge>
    <edge id=":J34_3" function="internal">
        <lane id=":J34_3_0" index="0" disallow="pedestrian tram rail_urban rail rail_electric rail_fast ship" speed="11.82" length="23.61" shape="351.72,224.75 359.68,226.68 366.06,227.14 370.88,226.11 374.11,223.60"/>
        <lane id=":J34_3_1" index="1" disallow="pedestrian tram rail_urban rail rail_electric rail_fast ship" speed="12.72" length="27.49" shape="350.78,227.81 359.76,229.92 367.07,230.24 372.71,228.78 376.67,225.53"/>
    </edge>
    <edge id=":J34_5" function="internal">
        <lane id=":J34_5_0" index="0" disallow="pedestrian tram rail_urban rail rail_electric rail_fast ship" speed="13.89" length="26.78" shape="350.78,227.81 359.08,229.35 365.22,229.52 370.79,230.70 377.35,235.26"/>
        <lane id=":J34_5_1" index="1" disallow="pedestrian tram rail_urban rail rail_electric rail_fast ship" speed="13.89" length="26.78" shape="350.78,227.81 358.54,229.70 364.08,230.79 369.07,232.83 375.17,237.60"/>
        <lane id=":J34_5_2" index="2" disallow="pedestrian tram rail_urban rail rail_electric rail_fast ship" speed="13.89" length="26.78" shape="349.85,230.87 357.20,232.63 362.46,233.59 367.20,235.46 372.99,239.94"/>
    </edge>
    <edge id=":J35_0" function="internal">
        <lane id=":J35_0_0" index="0" disallow="pedestrian tram rail_urban rail rail_electric rail_fast ship" speed="13.89" length="34.61" shape="386.99,236.23 387.28,243.67 388.44,251.41 389.89,260.09 391.04,270.32"/>
        <lane id=":J35_0_1" index="1" disallow="pedestrian tram rail_urban rail rail_electric rail_fast ship" speed="13.89" length="34.61" shape="383.79,236.09 384.08,243.58 385.24,251.46 386.69,260.26 387.85,270.55"/>
        <lane id=":J35_0_2" index="2" disallow="pedestrian tram rail_urban rail rail_electric rail_fast ship" speed="13.89" length="34.61" shape="383.79,236.09 383.58,243.62 383.65,251.57 384.00,260.46 384.66,270.79"/>
    </edge>
    <edge id=":J35_3" function="internal">
        <lane id=":J35_3_0" index="0" disallow="pedestrian tram rail_urban rail rail_electric rail_fast ship" speed="13.89" length="34.34" shape="379.94,237.66 386.66,244.57 391.32,250.79 395.35,257.51 400.18,265.94"/>
        <lane id=":J35_3_1" index="1" disallow="pedestrian tram rail_urban rail rail_electric rail_fast ship" speed="13.89" length="34.34" shape="377.76,240.01 384.39,246.81 388.85,252.77 392.68,259.24 397.43,267.56"/>
        <lane id=":J35_3_2" index="2" disallow="pedestrian tram rail_urban rail rail_electric rail_fast ship" speed="13.89" length="34.34" shape="377.76,240.01 383.96,247.06 387.48,253.58 390.36,260.61 394.67,269.19"/>
    </edge>
    <edge id=":J35_6" function="internal">
        <lane id=":J35_6_0" index="0" disallow="pedestrian tram rail_urban rail rail_electric rail_fast ship" speed="13.89" length="34.26" shape="377.76,240.01 384.31,246.95 388.11,253.38 390.05,260.71 391.04,270.32"/>
        <lane id=":J35_6_1" index="1" disallow="pedestrian tram rail_urban rail rail_electric rail_fast ship" speed="13.89" length="31.98" shape="375.58,242.35 381.98,248.96 385.43,254.67 387.02,261.27 387.85,270.55"/>
        <lane id=":J35_6_2" index="2" disallow="pedestrian tram rail_urban rail rail_electric rail_fast ship" speed="13.89" length="31.15" shape="375.58,242.35 381.46,248.99 383.81,254.80 384.32,261.49 384.66,270.79"/>
    </edge>

    <edge id="-E15" from="J19" to="J18" priority="-1">
        <lane id="-E15_0" index="0" disallow="pedestrian" speed="13.89" length="29.29" shape="389.71,182.05 388.18,211.29"/>
        <lane id="-E15_1" index="1" disallow="pedestrian" speed="13.89" length="29.29" shape="386.51,181.88 384.99,211.13"/>
    </edge>
    <edge id="-E17" from="J21" to="J20" priority="-1">
        <lane id="-E17_0" index="0" disallow="pedestrian" speed="13.89" length="29.53" shape="371.39,358.10 374.16,328.70"/>
        <lane id="-E17_1" index="1" disallow="pedestrian" speed="13.89" length="29.53" shape="374.57,358.40 377.35,329.00"/>
    </edge>
    <edge id="-E19" from="J23" to="J22" priority="-1">
        <lane id="-E19_0" index="0" disallow="pedestrian" speed="13.89" length="3.30" shape="413.18,315.91 410.95,313.49"/>
        <lane id="-E19_1" index="1" disallow="pedestrian" speed="13.89" length="3.30" shape="415.53,313.74 413.30,311.32"/>
        <lane id="-E19_2" index="2" disallow="pedestrian" speed="13.89" length="3.30" shape="417.88,311.57 415.65,309.15"/>
    </edge>
    <edge id="-E21" from="J25" to="J24" priority="-1">
        <lane id="-E21_0" index="0" disallow="pedestrian" speed="13.89" length="38.02" shape="315.97,178.87 347.26,200.46"/>
        <lane id="-E21_1" index="1" disallow="pedestrian" speed="13.89" length="38.02" shape="314.15,181.50 345.44,203.10"/>
        <lane id="-E21_2" index="2" disallow="pedestrian" speed="13.89" length="38.02" shape="312.33,184.14 343.62,205.73"/>
        <lane id="-E21_3" index="3" disallow="pedestrian" speed="13.89" length="38.02" shape="310.51,186.77 341.80,208.36"/>
    </edge>
    <edge id="-E24" from="J26" to="J23" priority="-1">
        <lane id="-E24_0" index="0" disallow="pedestrian" speed="13.89" length="59.53" shape="470.24,372.66 429.64,329.13"/>
        <lane id="-E24_1" index="1" disallow="pedestrian" speed="13.89" length="59.53" shape="472.58,370.48 431.98,326.95"/>
    </edge>
    <edge id="-E25" from="J27" to="J21" priority="-1">
        <lane id="-E25_0" index="0" disallow="pedestrian" speed="13.89" length="49.64" shape="369.16,408.25 371.35,358.66"/>
        <lane id="-E25_1" index="1" disallow="pedestrian" speed="13.89" length="49.64" shape="372.36,408.39 374.54,358.80"/>
    </edge>
    <edge id="-E26" from="J28" to="J19" priority="-1">
        <lane id="-E26_0" index="0" disallow="pedestrian" speed="13.89" length="45.71" shape="391.58,136.02 389.72,181.70"/>
        <lane id="-E26_1" index="1" disallow="pedestrian" speed="13.89" length="45.71" shape="388.38,135.89 386.52,181.57"/>
    </edge>
    <edge id="-E27" from="J29" to="J25" priority="-1">
        <lane id="-E27_0" index="0" disallow="pedestrian" speed="13.89" length="13.83" shape="300.43,163.13 309.71,173.39"/>
        <lane id="-E27_1" index="1" disallow="pedestrian" speed="13.89" length="13.83" shape="298.06,165.28 307.34,175.53"/>
        <lane id="-E27_2" index="2" disallow="pedestrian" speed="13.89" length="13.83" shape="295.69,167.43 304.97,177.68"/>
    </edge>
    <edge id="-E35" from="J17" to="J16" priority="-1">
        <lane id="-E35_0" index="0" speed="13.89" length="45.12" shape="315.14,243.20 271.45,254.48"/>
    </edge>
    <edge id="E15" from="J18" to="J19" priority="-1">
        <lane id="E15_0" index="0" disallow="pedestrian" speed="13.89" length="29.29" shape="378.60,210.79 380.12,181.55"/>
        <lane id="E15_1" index="1" disallow="pedestrian" speed="13.89" length="29.29" shape="381.79,210.96 383.31,181.71"/>
    </edge>
    <edge id="E17" from="J20" to="J21" priority="-1">
        <lane id="E17_0" index="0" disallow="pedestrian" speed="13.89" length="29.53" shape="383.72,329.60 380.94,359.00"/>
        <lane id="E17_1" index="1" disallow="pedestrian" speed="13.89" length="29.53" shape="380.54,329.30 377.76,358.70"/>
    </edge>
    <edge id="E19" from="J22" to="J23" priority="-1" shape="413.82,304.81 431.93,324.41 446.20,339.85">
        <lane id="E19_0" index="0" disallow="pedestrian" speed="13.89" length="3.29" shape="422.70,302.63 424.93,305.05"/>
        <lane id="E19_1" index="1" disallow="pedestrian" speed="13.89" length="3.29" shape="420.35,304.80 422.58,307.22"/>
        <lane id="E19_2" index="2" disallow="pedestrian" speed="13.89" length="3.29" shape="418.00,306.97 420.23,309.39"/>
    </edge>
    <edge id="E21" from="J24" to="J25" priority="-1">
        <lane id="E21_0" index="0" disallow="pedestrian" speed="13.89" length="38.02" shape="338.17,213.63 306.88,192.04"/>
        <lane id="E21_1" index="1" disallow="pedestrian" speed="13.89" length="38.02" shape="339.99,211.00 308.70,189.40"/>
    </edge>
    <edge id="E22" from="J24" to="J18" priority="-1" shape="345.07,212.56 368.01,215.42 382.93,219.88">
        <lane id="E22_0" index="0" disallow="pedestrian" speed="13.89" length="4.07" shape="368.60,213.93 372.50,215.09"/>
    </edge>
    <edge id="E23" from="J22" to="J20" priority="-1">
        <lane id="E23_0" index="0" disallow="pedestrian" speed="13.89" length="6.96" shape="395.98,317.19 389.99,320.72"/>
    </edge>
    <edge id="E24" from="J23" to="J26" priority="-1">
        <lane id="E24_0" index="0" disallow="pedestrian" speed="13.89" length="59.53" shape="439.00,320.40 479.60,363.93"/>
        <lane id="E24_1" index="1" disallow="pedestrian" speed="13.89" length="59.53" shape="436.66,322.58 477.26,366.12"/>
        <lane id="E24_2" index="2" disallow="pedestrian" speed="13.89" length="59.53" shape="434.32,324.77 474.92,368.30"/>
    </edge>
    <edge id="E25" from="J21" to="J27" priority="-1">
        <lane id="E25_0" index="0" disallow="pedestrian" speed="13.89" length="49.64" shape="380.94,359.08 378.76,408.67"/>
        <lane id="E25_1" index="1" disallow="pedestrian" speed="13.89" length="49.64" shape="377.74,358.94 375.56,408.53"/>
    </edge>
    <edge id="E26" from="J19" to="J28" priority="-1">
        <lane id="E26_0" index="0" disallow="pedestrian" speed="13.89" length="45.71" shape="380.13,181.31 381.98,135.64"/>
        <lane id="E26_1" index="1" disallow="pedestrian" speed="13.89" length="45.71" shape="383.33,181.44 385.18,135.77"/>
    </edge>
    <edge id="E27" from="J25" to="J29" priority="-1">
        <lane id="E27_0" index="0" disallow="pedestrian" speed="13.89" length="13.83" shape="300.22,181.98 290.94,171.72"/>
        <lane id="E27_1" index="1" disallow="pedestrian" speed="13.89" length="13.83" shape="302.59,179.83 293.31,169.57"/>
    </edge>
    <edge id="E35" from="J16" to="J17" priority="-1">
        <lane id="E35_0" index="0" speed="13.89" length="45.12" shape="270.65,251.38 314.34,240.10"/>
    </edge>
    <edge id="E38" from="J22" to="J30" priority="12" type="highway.primary">
        <lane id="E38_0" index="0" disallow="pedestrian tram rail_urban rail rail_electric rail_fast ship" speed="13.89" length="0.20" shape="396.50,312.55 396.30,312.54"/>
        <lane id="E38_1" index="1" disallow="pedestrian tram rail_urban rail rail_electric rail_fast ship" speed="13.89" length="0.20" shape="396.55,309.35 396.35,309.35"/>
        <lane id="E38_2" index="2" disallow="pedestrian tram rail_urban rail rail_electric rail_fast ship" speed="13.89" length="0.20" shape="396.59,306.15 396.39,306.15"/>
    </edge>
    <edge id="E39" from="J30" to="J20" priority="12" type="highway.primary">
        <lane id="E39_0" index="0" disallow="pedestrian tram rail_urban rail rail_electric rail_fast ship" speed="13.89" length="0.12" shape="386.50,317.86 386.47,317.97"/>
        <lane id="E39_1" index="1" disallow="pedestrian tram rail_urban rail rail_electric rail_fast ship" speed="13.89" length="0.12" shape="383.43,316.94 383.40,317.06"/>
    </edge>
    <edge id="E40" from="J20" to="J31" priority="12" type="highway.primary">
        <lane id="E40_0" index="0" disallow="pedestrian tram rail_urban rail rail_electric rail_fast ship" speed="13.89" length="11.71" shape="373.18,323.96 367.54,313.70"/>