<?xml version="1.0" encoding="UTF-8"?>

<!-- generated on 2025-02-24 15:46:10 by Eclipse SUMO netedit Version 1.22.0
<neteditConfiguration xmlns:xsi="http://www.w3.org/2001/XMLSchema-instance" xsi:noNamespaceSchemaLocation="http://sumo.dlr.de/xsd/neteditConfiguration.xsd">

    <input>
        <sumocfg-file value="C:\Users\Ректор\Downloads\TrafficSimulation-main\TrafficSimulation-main\test_opt_our1_smooth\test.sumocfg"/>
        <additional-files value=""/>
        <route-files value="C:\Users\Ректор\Downloads\TrafficSimulation-main\TrafficSimulation-main\test_opt_our1_smooth\test.rou.xml"/>
        <sumo-net-file value="C:\Users\Ректор\Downloads\TrafficSimulation-main\TrafficSimulation-main\test_opt_our1_smooth\our_project.net.xml"/>
    </input>

    <output>
        <output-file value="C:\Users\Ректор\Downloads\TrafficSimulation-main\TrafficSimulation-main\test_opt_our1_smooth\our_project.net.xml"/>
    </output>

    <processing>
        <geometry.min-radius.fix.railways value="false"/>
        <geometry.max-grade.fix value="false"/>
        <offset.disable-normalization value="true"/>
        <lefthand value="0"/>
    </processing>

    <junctions>
        <no-internal-links value="false"/>
        <no-turnarounds value="true"/>
        <junctions.corner-detail value="5"/>
        <junctions.limit-turn-speed value="5.50"/>
        <rectangular-lane-cut value="0"/>
    </junctions>

    <pedestrian>
        <walkingareas value="1"/>
    </pedestrian>

    <netedit>
        <ignore.routeelements value="false"/>
    </netedit>

</neteditConfiguration>
-->

<net version="1.20" junctionCornerDetail="5" walkingareas="true" limitTurnSpeed="5.50" xmlns:xsi="http://www.w3.org/2001/XMLSchema-instance" xsi:noNamespaceSchemaLocation="http://sumo.dlr.de/xsd/net_file.xsd">

    <location netOffset="-286081.53,-5527030.91" convBoundary="261.36,135.83,473.75,408.46" origBoundary="24.023652,49.857550,24.029778,49.863403" projParameter="+proj=utm +zone=35 +ellps=WGS84 +datum=WGS84 +units=m +no_defs"/>

    <type id="highway.primary" priority="12" numLanes="3" speed="13.89" disallow="pedestrian tram rail_urban rail rail_electric rail_fast ship" oneway="0" sidewalkWidth="3.00"/>

    <edge id=":J0_w0" function="walkingarea">
        <lane id=":J0_w0_0" index="0" allow="pedestrian" speed="2.78" length="3.20" width="3.20" shape="261.36,216.01 261.08,212.82 261.66,219.20 261.36,216.01"/>
    </edge>
    <edge id=":J18_0" function="internal">
        <lane id=":J18_0_0" index="0" disallow="pedestrian tram rail_urban rail rail_electric rail_fast ship" speed="13.89" length="37.66" shape="392.71,196.40 395.18,205.44 398.92,216.11 402.73,225.77 405.44,231.78"/>
    </edge>
    <edge id=":J18_1" function="internal">
        <lane id=":J18_1_0" index="0" disallow="pedestrian tram rail_urban rail rail_electric rail_fast ship" speed="13.89" length="38.01" shape="392.71,196.40 401.58,233.27"/>
        <lane id=":J18_1_1" index="1" disallow="pedestrian tram rail_urban rail rail_electric rail_fast ship" speed="13.89" length="38.01" shape="389.57,197.01 398.48,234.05"/>
    </edge>
    <edge id=":J18_3" function="internal">
        <lane id=":J18_3_0" index="0" disallow="pedestrian" speed="6.24" length="9.05" shape="378.60,204.33 381.07,203.81 382.68,202.63 383.42,200.77 383.29,198.25"/>
    </edge>
    <edge id=":J18_4" function="internal">
        <lane id=":J18_4_0" index="0" disallow="pedestrian tram rail_urban rail rail_electric rail_fast ship" speed="13.89" length="12.70" shape="383.16,209.96 384.04,206.57 384.27,204.15 383.98,201.71 383.29,198.25"/>
        <lane id=":J18_4_1" index="1" disallow="pedestrian tram rail_urban rail rail_electric rail_fast ship" speed="13.89" length="12.70" shape="386.23,210.87 387.23,207.04 387.51,204.31 387.20,201.55 386.43,197.63"/>
    </edge>
    <edge id=":J19_0" function="internal">
        <lane id=":J19_0_0" index="0" disallow="pedestrian" speed="13.89" length="2.26" shape="380.36,183.32 380.21,182.55 380.14,182.02 380.13,181.48 380.15,180.70"/>
        <lane id=":J19_0_1" index="1" disallow="pedestrian" speed="13.89" length="2.26" shape="383.50,182.70 383.39,182.15 383.34,181.77 383.33,181.39 383.35,180.83"/>
    </edge>
    <edge id=":J19_2" function="internal">
        <lane id=":J19_2_0" index="0" disallow="pedestrian" speed="13.89" length="0.75" shape="389.75,181.09 389.74,181.20 389.74,181.28 389.75,181.35 389.78,181.46"/>
        <lane id=":J19_2_1" index="1" disallow="pedestrian" speed="13.89" length="0.75" shape="386.55,180.96 386.54,181.30 386.54,181.53 386.57,181.75 386.64,182.08"/>
    </edge>
    <edge id=":J20_0" function="internal">
        <lane id=":J20_0_0" index="0" disallow="pedestrian tram rail_urban rail rail_electric rail_fast ship" speed="7.88" length="14.31" shape="389.07,336.91 386.25,337.25 384.11,339.10 382.64,342.48 381.86,347.37"/>
    </edge>
    <edge id=":J20_1" function="internal">
        <lane id=":J20_1_0" index="0" disallow="pedestrian tram rail_urban rail rail_electric rail_fast ship" speed="13.89" length="18.65" shape="386.38,330.62 383.61,334.98 382.46,338.38 382.13,342.09 381.86,347.37"/>
        <lane id=":J20_1_1" index="1" disallow="pedestrian tram rail_urban rail rail_electric rail_fast ship" speed="13.89" length="18.65" shape="383.79,328.73 380.73,333.52 379.40,337.25 378.99,341.32 378.67,347.12"/>
    </edge>
    <edge id=":J20_3" function="internal">
        <lane id=":J20_3_0" index="0" disallow="pedestrian tram rail_urban rail rail_electric rail_fast ship" speed="6.60" length="9.03" shape="369.10,346.36 368.94,343.91 368.05,342.06 366.41,340.82 364.04,340.18"/>
        <lane id=":J20_3_1" index="1" disallow="pedestrian tram rail_urban rail rail_electric rail_fast ship" speed="8.08" length="14.04" shape="372.29,346.62 372.05,342.80 370.66,339.92 368.11,337.99 364.42,337.01"/>
        <lane id=":J20_3_2" index="2" disallow="pedestrian tram rail_urban rail rail_electric rail_fast ship" speed="9.33" length="19.05" shape="375.48,346.87 375.15,341.69 373.27,337.79 369.82,335.17 364.80,333.83"/>
    </edge>
    <edge id=":J21_0" function="internal">
        <lane id=":J21_0_0" index="0" disallow="pedestrian" speed="13.89" length="7.80" shape="381.25,355.13 380.77,362.86"/>
        <lane id=":J21_0_1" index="1" disallow="pedestrian" speed="13.89" length="7.80" shape="378.06,354.88 377.58,362.72"/>
    </edge>
    <edge id=":J21_2" function="internal">
        <lane id=":J21_2_0" index="0" disallow="pedestrian" speed="13.89" length="8.32" shape="371.18,362.44 370.79,359.91 369.78,358.28 368.79,356.65 368.49,354.12"/>
        <lane id=":J21_2_1" index="1" disallow="pedestrian" speed="13.89" length="8.32" shape="371.18,362.44 371.68,354.38"/>
        <lane id=":J21_2_2" index="2" disallow="pedestrian" speed="13.89" length="8.32" shape="374.38,362.58 374.87,354.63"/>
    </edge>
    <edge id=":J23_0" function="internal">
        <lane id=":J23_0_0" index="0" disallow="pedestrian tram rail_urban rail rail_electric rail_fast ship" speed="13.81" length="19.44" shape="454.19,351.24 451.10,348.00 447.24,345.53 442.63,343.83 437.24,342.90"/>
    </edge>
    <edge id=":J23_1" function="internal">
        <lane id=":J23_1_0" index="0" disallow="pedestrian tram rail_urban rail rail_electric rail_fast ship" speed="13.89" length="20.48" shape="454.19,351.24 450.52,346.93 447.36,344.60 443.67,342.91 438.38,340.57"/>
        <lane id=":J23_1_1" index="1" disallow="pedestrian tram rail_urban rail rail_electric rail_fast ship" speed="13.89" length="20.48" shape="456.93,349.55 453.07,344.98 449.74,342.38 445.80,340.45 440.14,337.86"/>
        <lane id=":J23_1_2" index="2" disallow="pedestrian tram rail_urban rail rail_electric rail_fast ship" speed="13.89" length="20.48" shape="456.93,349.55 453.37,344.56 450.68,341.06 447.36,338.20 441.90,335.16"/>
    </edge>
    <edge id=":J23_4" function="internal">
        <lane id=":J23_4_0" index="0" disallow="pedestrian tram rail_urban rail rail_electric rail_fast ship" speed="13.89" length="25.37" shape="452.26,321.98 453.90,325.96 456.33,330.93 459.85,336.92 464.74,343.98"/>
    </edge>
    <edge id=":J23_5" function="internal">
        <lane id=":J23_5_0" index="0" disallow="pedestrian tram rail_urban rail rail_electric rail_fast ship" speed="13.89" length="25.43" shape="449.46,323.41 464.74,343.98"/>
        <lane id=":J23_5_1" index="1" disallow="pedestrian tram rail_urban rail rail_electric rail_fast ship" speed="13.89" length="25.43" shape="446.98,325.44 462.15,345.86"/>
        <lane id=":J23_5_2" index="2" disallow="pedestrian tram rail_urban rail rail_electric rail_fast ship" speed="13.89" length="25.43" shape="444.50,327.47 459.56,347.73"/>
    </edge>
    <edge id=":J24_0" function="internal">
        <lane id=":J24_0_0" index="0" disallow="pedestrian tram rail_urban rail rail_electric rail_fast ship" speed="6.72" length="10.06" shape="335.67,217.65 335.28,214.89 334.09,212.97 332.12,211.88 329.37,211.63"/>
    </edge>
    <edge id=":J24_1" function="internal">
        <lane id=":J24_1_0" index="0" disallow="pedestrian tram rail_urban rail rail_electric rail_fast ship" speed="10.19" length="14.38" shape="335.67,217.65 335.26,214.73 334.02,212.01 331.96,209.49 329.08,207.16"/>
        <lane id=":J24_1_1" index="1" disallow="pedestrian tram rail_urban rail rail_electric rail_fast ship" speed="11.25" length="14.38" shape="338.87,218.63 338.43,214.52 337.11,210.91 334.90,207.78 331.82,205.15"/>
    </edge>
    <edge id=":J24_3" function="internal">
        <lane id=":J24_3_0" index="0" disallow="pedestrian" speed="13.89" length="22.53" shape="341.89,196.51 348.32,200.36 353.84,202.78 358.56,204.16 362.58,204.88"/>
    </edge>
    <edge id=":J24_4" function="internal">
        <lane id=":J24_4_0" index="0" disallow="pedestrian tram rail_urban rail rail_electric rail_fast ship" speed="13.89" length="15.19" shape="339.40,198.69 343.14,201.21 345.68,202.96 348.15,204.82 351.66,207.65"/>
        <lane id=":J24_4_1" index="1" disallow="pedestrian tram rail_urban rail rail_electric rail_fast ship" speed="13.89" length="15.11" shape="336.91,200.87 340.64,203.37 343.18,205.10 345.65,206.92 349.15,209.73"/>
        <lane id=":J24_4_2" index="2" disallow="pedestrian tram rail_urban rail rail_electric rail_fast ship" speed="13.89" length="15.85" shape="334.43,203.05 338.34,205.67 341.01,207.48 343.60,209.39 347.27,212.33"/>
    </edge>
    <edge id=":J24_7" function="internal">
        <lane id=":J24_7_0" index="0" disallow="pedestrian" speed="3.21" length="2.35" shape="328.12,208.28 329.03,208.12 329.49,207.88 329.51,207.56 329.08,207.16"/>
    </edge>
    <edge id=":J24_w0" function="walkingarea">
        <lane id=":J24_w0_0" index="0" allow="pedestrian" speed="2.78" length="3.57" width="3.20" shape="327.95,206.69 328.29,209.87 329.29,210.03 329.45,213.22 333.91,215.96 333.42,214.33 332.60,212.77 331.45,211.27 329.98,209.85"/>
    </edge>
    <edge id=":J25_0" function="internal">
        <lane id=":J25_0_0" index="0" disallow="pedestrian" speed="13.89" length="12.01" shape="307.33,192.44 304.72,190.05 303.57,187.79 302.61,185.32 300.53,182.32"/>
        <lane id=":J25_0_1" index="1" disallow="pedestrian" speed="13.89" length="12.01" shape="309.13,189.79 306.70,187.53 305.68,185.37 304.83,183.01 302.90,180.17"/>
    </edge>
    <edge id=":J25_2" function="internal">
        <lane id=":J25_2_0" index="0" disallow="pedestrian" speed="13.89" length="9.58" shape="310.02,173.73 311.70,175.56 312.92,176.74 314.26,177.78 316.31,179.19"/>
        <lane id=":J25_2_1" index="1" disallow="pedestrian" speed="13.89" length="9.58" shape="307.65,175.88 309.48,177.87 310.81,179.17 312.28,180.31 314.51,181.84"/>
        <lane id=":J25_2_2" index="2" disallow="pedestrian" speed="13.89" length="9.58" shape="305.28,178.02 307.26,180.19 308.71,181.59 310.30,182.83 312.72,184.49"/>
        <lane id=":J25_2_3" index="3" disallow="pedestrian" speed="13.89" length="9.58" shape="305.28,178.02 307.05,180.70 307.78,182.94 308.67,185.00 310.92,187.14"/>
    </edge>
    <edge id=":J30_0" function="internal">
        <lane id=":J30_0_0" index="0" disallow="pedestrian tram rail_urban rail rail_electric rail_fast ship" speed="13.89" length="23.19" shape="403.98,323.88 398.29,321.24 394.12,319.94 389.76,319.68 383.52,320.18"/>
        <lane id=":J30_0_1" index="1" disallow="pedestrian tram rail_urban rail rail_electric rail_fast ship" speed="13.89" length="23.19" shape="405.37,321.00 399.17,318.13 394.62,316.73 389.87,316.46 383.05,317.01"/>
        <lane id=":J30_0_2" index="2" disallow="pedestrian tram rail_urban rail rail_electric rail_fast ship" speed="13.89" length="23.19" shape="406.76,318.12 400.05,315.02 395.12,313.51 389.97,313.24 382.59,313.84"/>
    </edge>
    <edge id=":J30_3" function="internal">
        <lane id=":J30_3_0" index="0" disallow="pedestrian tram rail_urban rail rail_electric rail_fast ship" speed="13.89" length="19.38" shape="403.15,313.91 398.79,317.66 395.58,320.03 392.62,322.61 389.00,327.02"/>
        <lane id=":J30_3_1" index="1" disallow="pedestrian tram rail_urban rail rail_electric rail_fast ship" speed="13.89" length="18.53" shape="399.93,312.56 395.76,316.16 392.70,318.43 389.87,320.91 386.41,325.13"/>
    </edge>
    <edge id=":J30_5" function="internal">
        <lane id=":J30_5_0" index="0" disallow="pedestrian tram rail_urban rail rail_electric rail_fast ship" speed="13.89" length="16.37" shape="399.93,312.56 395.86,316.25 392.64,318.37 388.96,319.49 383.52,320.18"/>
        <lane id=":J30_5_1" index="1" disallow="pedestrian tram rail_urban rail rail_electric rail_fast ship" speed="13.89" length="16.37" shape="396.78,311.14 393.39,314.12 390.67,315.72 387.57,316.50 383.05,317.01"/>
        <lane id=":J30_5_2" index="2" disallow="pedestrian tram rail_urban rail rail_electric rail_fast ship" speed="13.89" length="16.37" shape="396.78,311.14 393.36,313.56 390.42,314.09 387.10,313.81 382.59,313.84"/>
    </edge>
    <edge id=":J31_0" function="internal">
        <lane id=":J31_0_0" index="0" disallow="pedestrian tram rail_urban rail rail_electric rail_fast ship" speed="13.89" length="17.35" shape="327.32,321.26 325.99,316.13 325.00,312.62 324.28,309.07 323.74,303.81"/>
        <lane id=":J31_0_1" index="1" disallow="pedestrian tram rail_urban rail rail_electric rail_fast ship" speed="13.89" length="17.35" shape="330.44,320.53 329.13,315.54 328.17,312.13 327.46,308.68 326.93,303.58"/>
        <lane id=":J31_0_2" index="2" disallow="pedestrian tram rail_urban rail rail_electric rail_fast ship" speed="13.89" length="17.35" shape="333.55,319.79 332.28,314.95 331.34,311.64 330.64,308.30 330.13,303.35"/>
    </edge>
    <edge id=":J31_3" function="internal">
        <lane id=":J31_3_0" index="0" disallow="pedestrian tram rail_urban rail rail_electric rail_fast ship" speed="10.75" length="15.79" shape="337.59,315.94 331.76,313.84 327.51,311.12 324.84,307.77 323.74,303.81"/>
        <lane id=":J31_3_1" index="1" disallow="pedestrian tram rail_urban rail rail_electric rail_fast ship" speed="9.68" length="15.79" shape="338.52,312.88 333.62,311.17 330.06,309.05 327.83,306.52 326.93,303.58"/>
        <lane id=":J31_3_2" index="2" disallow="pedestrian tram rail_urban rail rail_electric rail_fast ship" speed="8.49" length="15.79" shape="339.46,309.82 335.48,308.50 332.60,306.98 330.82,305.26 330.13,303.35"/>
    </edge>
    <edge id=":J33_0" function="internal">
        <lane id=":J33_0_0" index="0" disallow="pedestrian tram rail_urban rail rail_electric rail_fast ship" speed="13.89" length="19.64" shape="320.58,260.00 320.65,254.25 321.77,250.40 323.73,246.69 326.31,241.34"/>
        <lane id=":J33_0_1" index="1" disallow="pedestrian tram rail_urban rail rail_electric rail_fast ship" speed="13.89" length="19.64" shape="323.77,259.77 323.88,254.19 325.07,250.47 327.07,246.89 329.63,241.70"/>
    </edge>
    <edge id=":J33_2" function="internal">
        <lane id=":J33_2_0" index="0" disallow="pedestrian tram rail_urban rail rail_electric rail_fast ship" speed="10.01" length="17.64" shape="323.77,259.77 323.71,252.44 324.74,246.99 326.84,243.42 330.03,241.74"/>
        <lane id=":J33_2_1" index="1" disallow="pedestrian tram rail_urban rail rail_electric rail_fast ship" speed="9.16" length="17.64" shape="326.96,259.55 326.92,253.46 327.78,248.93 329.54,245.97 332.21,244.57"/>
        <lane id=":J33_2_2" index="2" disallow="pedestrian tram rail_urban rail rail_electric rail_fast ship" speed="8.64" length="17.64" shape="326.96,259.55 327.09,254.85 328.24,251.29 330.40,248.86 333.59,247.56"/>
    </edge>
    <edge id=":J34_0" function="internal">
        <lane id=":J34_0_0" index="0" disallow="pedestrian tram rail_urban rail rail_electric rail_fast ship" speed="13.89" length="3.05" shape="374.27,228.44 376.81,230.14"/>
        <lane id=":J34_0_1" index="1" disallow="pedestrian tram rail_urban rail rail_electric rail_fast ship" speed="13.89" length="2.73" shape="372.31,230.99 374.58,232.50"/>
        <lane id=":J34_0_2" index="2" disallow="pedestrian tram rail_urban rail rail_electric rail_fast ship" speed="13.89" length="2.76" shape="369.47,232.72 371.76,234.28"/>
    </edge>
    <edge id=":J34_8" function="internal">
        <lane id=":J34_8_0" index="0" disallow="pedestrian tram rail_urban rail rail_electric rail_fast ship" speed="13.89" length="12.68" shape="376.81,230.14 378.10,231.00 381.32,231.95 384.40,233.05 387.80,236.01"/>
        <lane id=":J34_8_1" index="0" disallow="pedestrian tram rail_urban rail rail_electric rail_fast ship" speed="13.89" length="12.91" shape="374.58,232.50 376.11,233.53 379.31,234.49 382.36,235.58 385.73,238.54"/>
        <lane id=":J34_8_2" index="0" disallow="pedestrian tram rail_urban rail rail_electric rail_fast ship" speed="13.89" length="13.92" shape="371.76,234.28 373.51,235.48 376.88,236.60 380.09,237.86 383.66,241.06"/>
    </edge>
    <edge id=":J34_3" function="internal">
        <lane id=":J34_3_0" index="0" disallow="pedestrian tram rail_urban rail rail_electric rail_fast ship" speed="12.28" length="22.28" shape="368.76,234.33 372.38,232.71 375.64,229.27 378.55,223.99 381.11,216.89"/>
        <lane id=":J34_3_1" index="1" disallow="pedestrian tram rail_urban rail rail_electric rail_fast ship" speed="13.08" length="25.39" shape="369.80,237.39 374.10,235.54 377.93,231.65 381.28,225.74 384.17,217.79"/>
    </edge>
    <edge id=":J34_5" function="internal">
        <lane id=":J34_5_0" index="0" disallow="pedestrian tram rail_urban rail rail_electric rail_fast ship" speed="11.37" length="15.49" shape="369.80,237.39 377.15,236.15 382.60,235.51 386.15,235.46 387.80,236.01"/>
        <lane id=":J34_5_1" index="1" disallow="pedestrian tram rail_urban rail rail_electric rail_fast ship" speed="10.37" length="15.49" shape="370.84,240.46 373.49,239.97 378.42,239.14 383.27,238.48 385.73,238.54"/>
        <lane id=":J34_5_2" index="2" disallow="pedestrian tram rail_urban rail rail_electric rail_fast ship" speed="9.74" length="15.49" shape="370.84,240.46 375.65,239.75 379.39,239.61 382.06,240.05 383.66,241.06"/>
    </edge>
    <edge id=":J35_0" function="internal">
        <lane id=":J35_0_0" index="0" disallow="pedestrian tram rail_urban rail rail_electric rail_fast ship" speed="13.89" length="18.78" shape="415.79,276.16 418.63,280.96 420.65,284.19 422.83,287.33 426.12,291.82"/>
        <lane id=":J35_0_1" index="1" disallow="pedestrian tram rail_urban rail rail_electric rail_fast ship" speed="13.89" length="20.04" shape="412.57,276.99 415.59,282.11 417.73,285.57 420.04,288.92 423.55,293.72"/>
        <lane id=":J35_0_2" index="2" disallow="pedestrian tram rail_urban rail rail_electric rail_fast ship" speed="13.89" length="21.29" shape="409.34,277.82 412.55,283.26 414.81,286.95 417.25,290.52 420.98,295.63"/>
    </edge>
    <edge id=":J35_3" function="internal">
        <lane id=":J35_3_0" index="0" disallow="pedestrian tram rail_urban rail rail_electric rail_fast ship" speed="13.55" length="12.38" shape="409.34,277.82 411.30,281.13 412.44,283.60 412.83,286.22 412.54,289.99"/>
        <lane id=":J35_3_1" index="1" disallow="pedestrian tram rail_urban rail rail_electric rail_fast ship" speed="12.91" length="12.38" shape="409.34,277.82 410.67,280.86 410.73,283.21 410.12,285.70 409.42,289.15"/>
    </edge>
    <edge id=":J35_5" function="internal">
        <lane id=":J35_5_0" index="0" disallow="pedestrian tram rail_urban rail rail_electric rail_fast ship" speed="13.89" length="12.89" shape="412.61,276.98 413.94,281.05 415.12,283.84 415.81,286.66 415.66,290.82"/>
        <lane id=":J35_5_1" index="1" disallow="pedestrian tram rail_urban rail rail_electric rail_fast ship" speed="13.89" length="12.89" shape="409.51,277.77 410.74,281.38 411.90,283.83 412.62,286.31 412.54,289.99"/>
        <lane id=":J35_5_2" index="2" disallow="pedestrian tram rail_urban rail rail_electric rail_fast ship" speed="13.89" length="12.89" shape="409.51,277.77 410.18,281.09 410.26,283.42 409.94,285.77 409.42,289.15"/>
    </edge>

    <edge id="-E15" from="J19" to="J18" priority="-1">
        <lane id="-E15_0" index="0" disallow="pedestrian" speed="13.89" length="15.22" shape="389.78,181.46 392.71,196.40"/>
        <lane id="-E15_1" index="1" disallow="pedestrian" speed="13.89" length="15.22" shape="386.64,182.08 389.57,197.01"/>
    </edge>
    <edge id="-E17" from="J21" to="J20" priority="-1">
        <lane id="-E17_0" index="0" disallow="pedestrian" speed="13.89" length="7.78" shape="368.49,354.12 369.10,346.36"/>
        <lane id="-E17_1" index="1" disallow="pedestrian" speed="13.89" length="7.78" shape="371.68,354.38 372.29,346.62"/>
        <lane id="-E17_2" index="2" disallow="pedestrian" speed="13.89" length="7.78" shape="374.87,354.63 375.48,346.87"/>
    </edge>
    <edge id="-E21" from="J25" to="J24" priority="-1">
        <lane id="-E21_0" index="0" disallow="pedestrian" speed="13.89" length="29.64" shape="316.31,179.19 341.89,196.51"/>
        <lane id="-E21_1" index="1" disallow="pedestrian" speed="13.89" length="29.64" shape="314.51,181.84 339.40,198.69"/>
        <lane id="-E21_2" index="2" disallow="pedestrian" speed="13.89" length="29.64" shape="312.72,184.49 336.91,200.87"/>
        <lane id="-E21_3" index="3" disallow="pedestrian" speed="13.89" length="29.64" shape="310.92,187.14 334.43,203.05"/>
    </edge>
    <edge id="-E24" from="J26" to="J23" priority="-1" shape="473.75,369.39 461.16,352.55 449.65,337.14">
        <lane id="-E24_0" index="0" disallow="pedestrian" speed="13.89" length="26.10" shape="469.91,372.26 457.31,355.42 454.19,351.24"/>
        <lane id="-E24_1" index="1" disallow="pedestrian" speed="13.89" length="26.10" shape="472.47,370.35 459.88,353.51 456.93,349.55"/>
    </edge>
    <edge id="-E25" from="J27" to="J21" priority="-1">
        <lane id="-E25_0" index="0" disallow="pedestrian" speed="13.89" length="45.86" shape="369.16,408.25 371.18,362.44"/>
        <lane id="-E25_1" index="1" disallow="pedestrian" speed="13.89" length="45.86" shape="372.36,408.39 374.38,362.58"/>
    </edge>
    <edge id="-E26" from="J28" to="J19" priority="-1">
        <lane id="-E26_0" index="0" disallow="pedestrian" speed="13.89" length="45.10" shape="391.58,136.02 389.75,181.09"/>
        <lane id="-E26_1" index="1" disallow="pedestrian" speed="13.89" length="45.10" shape="388.38,135.89 386.55,180.96"/>
    </edge>
    <edge id="-E27" from="J29" to="J25" priority="-1">
        <lane id="-E27_0" index="0" disallow="pedestrian" speed="13.89" length="14.29" shape="300.43,163.13 310.02,173.73"/>
        <lane id="-E27_1" index="1" disallow="pedestrian" speed="13.89" length="14.29" shape="298.06,165.28 307.65,175.88"/>
        <lane id="-E27_2" index="2" disallow="pedestrian" speed="13.89" length="14.29" shape="295.69,167.43 305.28,178.02"/>
    </edge>
    <edge id="-E5" from="J0" to="J24" priority="-1" shape="261.36,216.01 310.45,211.76 328.50,209.85">
        <lane id="-E5_0" index="0" speed="13.89" length="67.18" shape="261.22,214.42 310.30,210.17 328.12,208.28"/>
    </edge>
    <edge id="E0" from="J35" to="J23" priority="12" type="highway.primary" shape="408.92,281.99 439.93,323.98 449.65,337.14">
        <lane id="E0_0" index="0" disallow="pedestrian tram rail_urban rail rail_electric rail_fast ship" speed="13.89" length="39.43" shape="426.12,291.82 446.37,319.23 449.46,323.41"/>
        <lane id="E0_1" index="1" disallow="pedestrian tram rail_urban rail rail_electric rail_fast ship" speed="13.89" length="39.43" shape="423.55,293.72 443.79,321.13 446.98,325.44"/>
        <lane id="E0_2" index="2" disallow="pedestrian tram rail_urban rail rail_electric rail_fast ship" speed="13.89" length="39.43" shape="420.98,295.63 441.22,323.03 444.50,327.47"/>
    </edge>
    <edge id="E1" from="J23" to="J30" priority="12" type="highway.primary" shape="449.65,337.14 435.98,330.51 394.99,310.63">
        <lane id="E1_0" index="0" disallow="pedestrian tram rail_urban rail rail_electric rail_fast ship" speed="13.89" length="38.64" shape="438.38,340.57 432.49,337.71 403.98,323.88"/>
        <lane id="E1_1" index="1" disallow="pedestrian tram rail_urban rail rail_electric rail_fast ship" speed="13.89" length="38.64" shape="440.14,337.86 433.89,334.83 405.37,321.00"/>
        <lane id="E1_2" index="2" disallow="pedestrian tram rail_urban rail rail_electric rail_fast ship" speed="13.89" length="38.64" shape="441.90,335.16 435.28,331.95 406.76,318.12"/>
    </edge>
    <edge id="E15" from="J18" to="J19" priority="-1">
        <lane id="E15_0" index="0" disallow="pedestrian" speed="13.89" length="15.22" shape="383.29,198.25 380.36,183.32"/>
        <lane id="E15_1" index="1" disallow="pedestrian" speed="13.89" length="15.22" shape="386.43,197.63 383.50,182.70"/>
    </edge>
    <edge id="E17" from="J20" to="J21" priority="-1">
        <lane id="E17_0" index="0" disallow="pedestrian" speed="13.89" length="7.78" shape="381.86,347.37 381.25,355.13"/>
        <lane id="E17_1" index="1" disallow="pedestrian" speed="13.89" length="7.78" shape="378.67,347.12 378.06,354.88"/>
    </edge>
    <edge id="E2" from="J23" to="J20" priority="12" type="highway.primary" shape="449.65,337.14 443.71,341.90 424.74,340.12 378.11,333.82">
        <lane id="E2_0" index="0" disallow="pedestrian tram rail_urban rail rail_electric rail_fast ship" speed="13.89" length="48.56" shape="437.24,342.90 424.56,341.71 389.07,336.91"/>
    </edge>
    <edge id="E21" from="J24" to="J25" priority="-1">
        <lane id="E21_0" index="0" disallow="pedestrian" speed="13.89" length="26.83" shape="329.08,207.16 307.33,192.44"/>
        <lane id="E21_1" index="1" disallow="pedestrian" speed="13.89" length="26.83" shape="331.82,205.15 309.13,189.79"/>
    </edge>
    <edge id="E22" from="J24" to="J18" priority="-1" shape="342.72,210.60 352.43,204.57 361.70,206.37 363.70,206.65 368.72,206.54 389.56,205.25">
        <lane id="E22_0" index="0" disallow="pedestrian" speed="13.89" length="16.05" shape="362.58,204.88 363.79,205.05 368.65,204.94 378.60,204.33"/>
    </edge>
    <edge id="E24" from="J23" to="J26" priority="-1" shape="449.65,337.14 461.52,353.03 473.75,369.39">
        <lane id="E24_0" index="0" disallow="pedestrian" speed="13.89" length="25.79" shape="464.74,343.98 467.93,348.24 480.16,364.60"/>
        <lane id="E24_1" index="1" disallow="pedestrian" speed="13.89" length="25.79" shape="462.15,345.86 465.37,350.16 477.59,366.52"/>
        <lane id="E24_2" index="2" disallow="pedestrian" speed="13.89" length="25.79" shape="459.56,347.73 462.80,352.07 475.03,368.43"/>
    </edge>
    <edge id="E25" from="J21" to="J27" priority="-1">
        <lane id="E25_0" index="0" disallow="pedestrian" speed="13.89" length="45.86" shape="380.77,362.86 378.76,408.67"/>
        <lane id="E25_1" index="1" disallow="pedestrian" speed="13.89" length="45.86" shape="377.58,362.72 375.56,408.53"/>
    </edge>
    <edge id="E26" from="J19" to="J28" priority="-1">
        <lane id="E26_0" index="0" disallow="pedestrian" speed="13.89" length="45.10" shape="380.15,180.70 381.98,135.64"/>
        <lane id="E26_1" index="1" disallow="pedestrian" speed="13.89" length="45.10" shape="383.35,180.83 385.18,135.77"/>
    </edge>
    <edge id="E27" from="J25" to="J29" priority="-1">
        <lane id="E27_0" index="0" disallow="pedestrian" speed="13.89" length="14.29" shape="300.53,182.32 290.94,171.72"/>
        <lane id="E27_1" index="1" disallow="pedestrian" speed="13.89" length="14.29" shape="302.90,180.17 293.31,169.57"/>
    </edge>
    <edge id="E3" from="J18" to="J23" priority="12" type="highway.primary" shape="389.56,205.25 440.04,300.46 448.83,317.48 450.58,322.06 441.67,317.62 449.96,322.23 449.65,337.14">
        <lane id="E3_0" index="0" disallow="pedestrian tram rail_urban rail rail_electric rail_fast ship" speed="13.89" length="101.66" shape="405.44,231.78 441.46,299.72 450.29,316.83 452.26,321.98"/>
    </edge>
    <edge id="E39" from="J30" to="J20" priority="12" type="highway.primary">
        <lane id="E39_0" index="0" disallow="pedestrian tram rail_urban rail rail_electric rail_fast ship" speed="13.89" length="4.45" shape="389.00,327.02 386.38,330.62"/>
        <lane id="E39_1" index="1" disallow="pedestrian tram rail_urban rail rail_electric rail_fast ship" speed="13.89" length="4.45" shape="386.41,325.13 383.79,328.73"/>
    </edge>
    <edge id="E4" from="J31" to="J33" priority="12" type="highway.primary">
        <lane id="E4_0" index="0" disallow="pedestrian tram rail_urban rail rail_electric rail_fast ship" speed="13.89" length="43.92" shape="323.74,303.81 320.58,260.00"/>